52
15(S)-HEPE
C         -0.41740        1.58010       -0.09260
C          0.08260        0.16590       -0.09260
C          1.58260        0.16590       -0.09260
C          2.27470       -0.40820        0.90180
C          1.57430       -1.07140        2.05050
C          2.26640       -1.64550        3.04480
C          1.56600       -2.30870        4.19350
O          0.35490       -2.81240        3.76490
C          2.41560       -3.42810        4.71820
C          1.71520       -4.09130        5.86690
C          2.27130       -5.12660        6.51200
C          3.61420       -5.65950        6.10850
C          3.48110       -7.09890        5.70800
C         -1.18930        2.04130       -1.08690
C         -1.58120        1.15990       -2.23560
C         -2.91970        1.58770       -2.76020
C         -3.06820        1.99380       -4.02920
C         -1.90110        2.03520       -4.97060
C         -2.10940        3.12720       -5.97760
C         -2.22750        4.44430       -5.26950
C         -2.43590        5.53640       -6.27650
O         -1.63280        6.47580       -6.37740
O         -3.43720        5.46920       -7.00480
H          1.39640       -1.57930        4.98560
H         -0.13520        2.21490        0.73470
H         -0.28070       -0.34790        0.79740
H         -0.28070       -0.34790       -0.98250
H          2.08700        0.64350       -0.91990
H          3.35500       -0.40820        0.90180
H          0.49400       -1.07140        2.05050
H          3.34670       -1.64550        3.04480
H         -0.27930       -2.13230        3.39700
H          3.37230       -3.03020        5.05670
H          2.58530       -4.15740        3.92610
H          0.74810       -3.70750        6.15750
H          1.76690       -5.60430        7.33930
H          4.30450       -5.57830        6.94810
H          3.99630       -5.08190        5.26670
H          2.79080       -7.18010        4.86840
H          4.45700       -7.48610        5.41480
H          3.09900       -7.67640        6.54970
H         -1.54940        3.05980       -1.08690
H         -0.83700        1.24300       -3.02770
H         -1.63740        0.12530       -1.89700
H         -3.76020        1.55800       -2.08220
H         -4.03220        2.30200       -4.40700
H         -0.98750        2.22870       -4.40850
H         -1.81530        1.07810       -5.48510
H         -1.26140        3.15730       -6.66170
H         -3.02300        2.93370       -6.53970
H         -3.07560        4.41430       -4.58540
H         -1.31400        4.63790       -4.70740
