52
15(S)-HEPE
C         -1.34060       -0.47300        0.11110
C         -0.84060       -1.88720        0.11110
C          0.65940       -1.88720        0.11110
C          1.35150       -1.31320        1.10540
C          0.65110       -0.64990        2.25410
C          1.34320       -0.07590        3.24850
C          0.64280        0.58730        4.39720
O         -0.56840        1.09110        3.96860
C          0.40930       -0.41630        5.48720
C         -0.44020       -1.53570        4.96260
C         -0.32460       -2.77930        5.44980
C          0.65860       -3.09660        6.53730
C          0.00270       -2.91230        7.87370
C         -1.57130        0.17950       -1.03710
C         -1.33790       -0.48080       -2.36350
C          0.07330       -0.22950       -2.80560
C          0.38600        0.84360       -3.54580
C         -0.66390        1.83220       -3.95870
C         -0.72810        1.89730       -5.45590
C          0.60370        2.32780       -5.99520
C          0.53950        2.39290       -7.49240
O          1.23950        3.19440       -8.12890
O         -0.23650        1.61930       -8.07290
H          1.26020        1.40080        4.77840
H         -1.50880        0.00260        1.06640
H         -1.20400       -2.40110        1.00110
H         -1.20400       -2.40110       -0.77890
H          1.16380       -2.36490       -0.71620
H          2.43180       -1.31320        1.10540
H         -0.42920       -0.64990        2.25410
H          2.42350       -0.07590        3.24850
H         -0.50840        1.77160        3.23830
H         -0.09960        0.06560        6.32190
H          1.36600       -0.81420        5.82580
H         -1.14830       -1.30720        4.17940
H         -0.93640       -3.58550        5.07200
H          1.51610       -2.42840        6.45820
H          0.99210       -4.12930        6.43560
H         -0.85480       -3.58050        7.95280
H          0.71720       -3.14290        8.66400
H         -0.33080       -1.87960        7.97540
H         -1.93140        1.19800       -1.03710
H         -1.50340       -1.55400       -2.26920
H         -2.02810       -0.07010       -3.10040
H          0.82940       -0.94150       -2.50830
H          1.40230        1.02460       -3.86420
H         -1.63170        1.51930       -3.56680
H         -0.41240        2.81600       -3.56270
H         -0.97970        0.91340       -5.85190
H         -1.49110        2.61560       -5.75590
H          0.85520        3.31170       -5.59920
H          1.36660        1.60950       -5.69520
