52
15(S)-HEPE
C          0.67080        3.46040       -1.64780
C          1.17080        2.04620       -1.64780
C          2.67080        2.04620       -1.64780
C          3.36290        1.05190       -1.07370
C          2.66250       -0.09690       -0.41050
C          3.35460       -1.09120        0.16360
C          2.65420       -2.23990        0.82680
O          1.44300       -2.46180        0.20370
C          3.50380       -3.47160        0.72140
C          3.73720       -3.79580       -0.72440
C          3.91490       -5.06120       -1.13000
C          3.88660       -6.19890       -0.15280
C          5.27150       -6.44500        0.36820
C         -0.10120        3.92160       -0.65350
C         -0.49300        3.04010        0.49530
C         -1.35180        3.81530        1.45010
C         -2.60270        3.42330        1.73060
C         -3.18920        2.19520        1.09980
C         -4.67340        2.36360        0.96290
C         -5.25980        1.13550        0.33210
C         -6.74410        1.30390        0.19520
O         -7.29300        1.26460       -0.91600
O         -7.40420        1.48370        1.22930
H          2.48450       -2.00430        1.87740
H          0.95290        4.09520       -2.47510
H          0.80740        1.53230       -0.75780
H          0.80740        1.53230       -2.53780
H          3.17520        2.87350       -2.12540
H          4.44320        1.05190       -1.07370
H          1.58220       -0.09690       -0.41050
H          4.43490       -1.09120        0.16360
H          0.80890       -1.68890        0.22510
H          2.99480       -4.30640        1.20340
H          4.46040       -3.29640        1.21360
H          3.75760       -2.97650       -1.42810
H          4.08300       -5.29470       -2.17130
H          3.52100       -7.09680       -0.65100
H          3.22540       -5.94890        0.67690
H          5.63720       -5.54710        0.86640
H          5.25100       -7.27170        1.07830
H          5.93280       -6.69500       -0.46150
H         -0.46130        4.94010       -0.65350
H         -1.05000        2.18130        0.12080
H          0.40330        2.69520        1.01070
H         -0.92940        4.69980        1.90430
H         -3.22120        3.98160        2.41820
H         -2.74790        2.04680        0.11430
H         -2.97810        1.32870        1.72660
H         -5.11470        2.51190        1.94840
H         -4.88440        3.23000        0.33610
H         -4.81850        0.98710       -0.65340
H         -5.04880        0.26900        0.95890
