52
15(S)-HEPE
C         -1.61640        3.23090        2.20060
C         -1.11640        1.81660        2.20060
C          0.38360        1.81660        2.20060
C          1.07570        0.66850        2.20060
C          0.37530       -0.65790        2.20060
C          1.06740       -1.80610        2.20060
C          0.36700       -3.13250        2.20060
O          0.15220       -3.53930        3.50170
C         -0.94950       -3.00280        1.49350
C         -0.71600       -2.56060        0.07930
C         -1.11380       -3.31390       -0.95600
C         -1.80670       -4.62620       -0.73780
C         -1.49560       -5.55130       -1.87680
C         -1.30590        4.07470        1.20630
C         -0.44720        3.63550        0.05750
C         -0.82970        4.40130       -1.17420
C         -0.20550        4.19080       -2.34180
C          0.89820        3.18180       -2.45900
C          0.91510        2.61850       -3.84910
C          2.01880        1.60940       -3.96630
C          1.79040        0.50190       -2.98080
O          2.57890       -0.45130       -2.89490
O          0.78750        0.57050       -2.25480
H          0.98430       -3.86940        1.68680
H         -2.23490        3.54720        3.02790
H         -1.47980        1.30280        3.09060
H         -1.47980        1.30280        1.31060
H          0.88800        2.77190        2.20060
H          2.15600        0.66850        2.20060
H         -0.70500       -0.65790        2.20060
H          2.14770       -1.80610        2.20060
H         -0.80710       -3.67520        3.74910
H         -1.56690       -2.26590        2.00730
H         -1.45850       -3.96670        1.49350
H         -0.21700       -1.61550       -0.07790
H         -0.94560       -2.99540       -1.97450
H         -2.88330       -4.46420       -0.68490
H         -1.45970       -5.06950        0.19560
H         -0.41900       -5.71330       -1.92960
H         -1.99910       -6.50500       -1.71820
H         -1.84260       -5.10800       -2.81010
H         -1.66600        5.09330        1.20630
H          0.59990        3.82570        0.29310
H         -0.59230        2.56950       -0.11770
H         -1.62450        5.12800       -1.08980
H         -0.48100        4.74240       -3.22890
H          1.85380        3.66260       -2.25020
H          0.73220        2.37700       -1.74280
H         -0.04050        2.13760       -4.05790
H          1.08100        3.42330       -4.56530
H          2.03110        1.20010       -4.97650
H          2.97440        2.09030       -3.75750
