52
15(S)-HEPE
C         -0.41600       -0.00190       -1.22530
C          0.08400       -1.41610       -1.22530
C          1.58400       -1.41610       -1.22530
C          2.27610       -0.84200       -0.23100
C          1.57570       -0.17880        0.91770
C          2.26780        0.39530        1.91210
C          1.56740        1.05850        3.06080
O          0.35630        0.43540        3.28270
C          2.41700        0.95310        4.29250
C          1.71660        1.61630        5.44120
C          2.27270        1.65730        6.66040
C          3.61560        1.04150        6.92010
C          4.68850        2.06190        6.68030
C         -1.72920        0.26790       -1.22530
C         -2.74630       -0.83460       -1.22530
C         -3.60500       -0.72260       -2.45010
C         -3.27050       -1.34510       -3.58920
C         -2.02520       -2.17630       -3.68060
C         -0.87920       -1.31360       -4.11930
C         -1.18490       -0.72160       -5.46320
C         -2.43020        0.10960       -5.37180
O         -3.42830       -0.15510       -6.05830
O         -2.42900        1.07000       -4.58750
H          1.39780        2.10910        2.82520
H          0.31650        0.79210       -1.22530
H         -0.27930       -1.92990       -0.33530
H         -0.27930       -1.92990       -2.11530
H          2.08840       -1.89370       -2.05260
H          3.35640       -0.84200       -0.23100
H          0.49540       -0.17880        0.91770
H          3.34810        0.39530        1.91210
H         -0.27790        0.45680        2.50980
H          3.37370        1.44520        4.11720
H          2.58670       -0.09750        4.52810
H          0.74950        2.05990        5.25420
H          1.76830        2.13500        7.48770
H          3.76290        0.19490        6.24950
H          3.66440        0.69900        7.95380
H          4.54110        2.90850        7.35090
H          5.66430        1.61440        6.86900
H          4.63960        2.40440        5.64660
H         -2.08930        1.28640       -1.22530
H         -2.23730       -1.79840       -1.22530
H         -3.37030       -0.75320       -0.33530
H         -4.50190       -0.12400       -2.38430
H         -3.88890       -1.26450       -4.47130
H         -1.80300       -2.60650       -2.70400
H         -2.17510       -2.97710       -4.40470
H         -0.72930       -0.51280       -3.39510
H          0.02570       -1.91760       -4.18570
H         -0.35220       -0.09470       -5.78200
H         -1.33490       -1.52230       -6.18730
