52
15(S)-HEPE
C          0.84420        2.39160       -0.36130
C          1.34420        0.97740       -0.36130
C          2.84420        0.97740       -0.36130
C          3.53630       -0.01690        0.21280
C          2.83590       -1.16570        0.87600
C          3.52800       -2.16000        1.45010
C          2.82760       -3.30870        2.11330
O          2.03750       -2.83450        3.14060
C          1.96880       -4.01800        1.10860
C          2.82760       -4.53340       -0.00800
C          2.49300       -5.64220       -0.68330
C          1.24770       -6.40770       -0.34680
C          1.61340       -7.80630        0.05360
C         -0.32400        2.71270       -0.93540
C         -1.17360        1.66950       -1.59860
C         -2.12340        1.08600       -0.59490
C         -3.01750        1.85630        0.04110
C         -3.10060        3.32960       -0.22780
C         -4.51100        3.79680       -0.02130
C         -4.59410        5.27020       -0.29020
C         -4.17870        5.54440       -1.70520
O         -5.00820        5.54660       -2.62690
O         -2.97880        5.76880       -1.92330
H          3.56670       -4.00250        2.51380
H          1.45600        3.14300        0.11630
H          0.98080        0.46360        0.52870
H          0.98080        0.46360       -1.25130
H          3.34860        1.80470       -0.83890
H          4.61660       -0.01690        0.21280
H          1.75560       -1.16570        0.87600
H          4.60830       -2.16000        1.45010
H          1.06180       -3.03380        3.04990
H          1.22970       -3.32420        0.70800
H          1.45990       -4.85280        1.59050
H          3.72440       -3.98210       -0.25040
H          3.11150       -6.01340       -1.48750
H          0.59360       -6.43850       -1.21820
H          0.73130       -5.91690        0.47810
H          2.26750       -7.77550        0.92490
H          0.70850       -8.36250        0.29810
H          2.12980       -8.29710       -0.77130
H         -0.68410        3.73120       -0.93540
H         -1.73880        2.12440       -2.41200
H         -0.53550        0.88040       -1.99640
H         -2.06360        0.02490       -0.40120
H         -3.70160        1.43610        0.76390
H         -2.43800        3.86150        0.45490
H         -2.79880        3.52890       -1.25610
H         -5.17360        3.26490       -0.70400
H         -4.81280        3.59760        1.00700
H         -5.61890        5.60970       -0.14010
H         -3.93150        5.80210        0.39250
