52
15(S)-HEPE
C         -1.26290        3.86810       -1.47060
C         -0.76290        2.45390       -1.47060
C          0.73710        2.45390       -1.47060
C          1.42920        1.30580       -1.47060
C          0.72880       -0.02070       -1.47060
C          1.42090       -1.16880       -1.47060
C          0.72050       -2.49520       -1.47060
O         -0.49070       -2.37590       -0.82000
C          0.48700       -2.93740       -2.88480
C         -0.21340       -4.26380       -2.88480
C          0.47880       -5.41200       -2.88480
C          1.97880       -5.41200       -2.88480
C          2.47870       -6.11910       -1.66000
C         -1.49360        4.52070       -0.32240
C         -1.26020        3.86030        1.00400
C         -2.54550        3.82150        1.77630
C         -2.79720        2.83820        2.65220
C         -1.80280        1.74110        2.89170
C         -0.87560        2.14010        4.00130
C          0.11880        1.04300        4.24080
C          0.91050        0.80380        2.98940
O          1.79700       -0.06230        2.94840
O          0.64960        1.50030        1.99720
H          1.33780       -3.23210       -0.95670
H         -1.43110        4.34370       -2.42590
H         -1.12630        1.94010       -0.58060
H         -1.12630        1.94010       -2.36050
H          1.24150        3.40920       -1.47060
H          2.50950        1.30580       -1.47060
H         -0.35150       -0.02070       -1.47060
H          2.50120       -1.16880       -1.47060
H         -0.43080       -2.08370        0.13450
H          1.44370       -3.03160       -3.39860
H         -0.13030       -2.20050       -3.39860
H         -1.29370       -4.26380       -2.88480
H         -0.02570       -6.36730       -2.88480
H          2.34210       -4.38430       -2.88480
H          2.34210       -5.92580       -3.77480
H          2.11540       -7.14670       -1.66000
H          3.56870       -6.11910       -1.66000
H          2.11540       -5.60520       -0.77010
H         -1.85370        5.53920       -0.32240
H         -0.90070        2.84360        0.84550
H         -0.51600        4.42540        1.56520
H         -3.26170        4.61160        1.60380
H         -3.72290        2.81030        3.20840
H         -2.32910        0.82770        3.16880
H         -1.22750        1.56730        1.98230
H         -0.34930        3.05350        3.72420
H         -1.45090        2.31390        4.91060
H          0.79250        1.33290        5.04710
H         -0.40750        0.12960        4.51790
