49
alpha-Linolenic acid
O         -6.33910        3.18560       -2.59270
C         -5.55130        2.70680       -1.76350
O         -4.32450        2.79700       -1.91970
C         -6.05130        1.99970       -0.53870
C         -5.55130        2.70680        0.68600
C         -4.05130        2.70680        0.68600
C         -3.55130        1.29260        0.68600
C         -2.05130        1.29260        0.68600
C         -1.55130       -0.12160        0.68600
C         -0.05130       -0.12160        0.68600
C          0.44870        0.58550       -0.53870
C          1.22060       -0.04500       -1.43530
C          1.61250       -1.48050       -1.24630
C          2.95100       -1.72090       -1.87910
C          3.99370       -2.14730       -1.15230
C          3.85970       -2.39940        0.32030
C          5.17550       -2.86530        0.86950
C          5.80690       -2.17690        1.83120
C          7.12260       -2.64280        2.38040
C          6.88290       -3.55230        3.54880
H         -5.68800        0.97210       -0.53870
H         -7.14130        1.99970       -0.53870
H         -5.91460        2.19300        1.57600
H         -5.91460        3.73450        0.68600
H         -3.68800        3.22070        1.57600
H         -3.68800        3.22070       -0.20400
H         -3.91460        0.77880        1.57600
H         -3.91460        0.77880       -0.20400
H         -1.68800        1.80650       -0.20400
H         -1.68800        1.80650        1.57600
H         -1.91460       -0.63540       -0.20400
H         -1.91460       -0.63540        1.57600
H          0.31200       -1.14920        0.68600
H          0.31200        0.39220        1.57600
H          0.16650        1.61940       -0.67480
H          1.58070        0.46430       -2.31730
H          1.66870       -1.70460       -0.18110
H          0.86830       -2.12490       -1.71440
H          3.04750       -1.53940       -2.93970
H          4.95770       -2.32040       -1.60800
H          3.10330       -3.16550        0.49040
H          3.56270       -1.47800        0.82110
H          5.59780       -3.77360        0.46500
H          5.38460       -1.26860        2.23570
H          7.70660       -1.78130        2.70440
H          7.66900       -3.18180        1.60650
H          7.83900       -3.89090        3.94800
H          6.29890       -4.41380        3.22480
H          6.33650       -3.01330        4.32280
