49
alpha-Linolenic acid
O         -4.36960        2.08970        4.67630
C         -3.72950        1.55880        3.75660
O         -4.30850        1.01050        2.80700
C         -2.22950        1.55880        3.75660
C         -1.72950        2.26590        2.53190
C         -2.22950        1.55880        1.30710
C         -1.72950        0.14450        1.30710
C         -2.22950       -0.56260        0.08240
C         -1.72950       -1.97680        0.08240
C         -0.22950       -1.97680        0.08240
C          0.27050       -1.26970       -1.14240
C          1.43870       -1.60630       -1.70750
C          2.28830       -2.70230       -1.13560
C          3.52750       -2.85930       -1.96610
C          4.39080       -1.84530       -2.11970
C          4.14900       -0.51670       -1.46670
C          3.35710        0.35860       -2.39230
C          2.51980        1.29090       -1.91590
C          1.72780        2.16620       -2.84140
C          0.84420        1.31310       -3.70250
H         -1.86610        0.53110        3.75660
H         -1.86610        2.07260        4.64660
H         -0.63950        2.26590        2.53190
H         -2.09280        3.29350        2.53190
H         -1.86610        2.07260        0.41720
H         -3.31950        1.55880        1.30710
H         -0.63950        0.14450        1.30710
H         -2.09280       -0.36930        2.19710
H         -3.31950       -0.56260        0.08240
H         -1.86610       -0.04870       -0.80760
H         -2.09280       -2.49060       -0.80760
H         -2.09280       -2.49060        0.97240
H          0.13390       -3.00440        0.08240
H          0.13390       -1.46290        0.97240
H         -0.34130       -0.48030       -1.55420
H          1.79880       -1.09700       -2.58950
H          2.56620       -2.45010       -0.11220
H          1.72720       -3.63670       -1.13990
H          3.70160       -3.81620       -2.43630
H          5.28330       -1.95840       -2.71780
H          5.10460       -0.04110       -1.24580
H          3.59320       -0.66280       -0.54050
H          3.48330        0.21320       -3.45530
H          2.39350        1.43630       -0.85290
H          2.40860        2.73720       -3.47280
H          1.11360        2.85120       -2.25700
H          0.26870        1.94910       -4.37510
H          0.16340        0.74210       -3.07110
H          1.45840        0.62800       -4.28700
