49
alpha-Linolenic acid
O         -4.17450        4.84930        0.54920
C         -3.38660        4.37050       -0.28000
O         -2.15980        4.46070       -0.12380
C         -3.88660        3.66340       -1.50480
C         -3.38660        2.24920       -1.50480
C         -1.88660        2.24920       -1.50480
C         -1.38660        0.83490       -1.50480
C         -1.88660        0.12780       -2.72950
C         -1.38660       -1.28640       -2.72950
C          0.11340       -1.28640       -2.72950
C          0.61340       -2.70060       -2.72950
C          0.84410       -3.35310       -1.58140
C          0.61060       -2.69280       -0.25490
C          0.94970       -3.65170        0.84750
C          1.40370       -3.21380        2.03050
C          1.58930       -1.74890        2.29460
C          2.70810       -1.55540        3.27480
C          3.79730       -0.84440        2.95020
C          4.91620       -0.65080        3.93040
C          5.99490        0.17950        3.30030
H         -3.52330        4.17720       -2.39480
H         -4.97660        3.66340       -1.50480
H         -3.75000        1.73530       -2.39480
H         -3.75000        1.73530       -0.61480
H         -1.52330        2.76300       -0.61480
H         -1.52330        2.76300       -2.39480
H         -0.29660        0.83490       -1.50480
H         -1.75000        0.32110       -0.61480
H         -2.97660        0.12780       -2.72950
H         -1.52330        0.64170       -3.61950
H         -1.75000       -1.80020       -3.61950
H         -1.75000       -1.80020       -1.83950
H          0.47670       -0.77250       -1.83950
H          0.47670       -0.77250       -3.61950
H          0.78150       -3.17620       -3.68480
H          1.20420       -4.37160       -1.58140
H          1.24170       -1.80780       -0.17360
H         -0.43650       -2.40110       -0.17360
H          0.81600       -4.70670        0.65730
H          1.64790       -3.90440        2.82450
H          0.66920       -1.33470        2.70700
H          1.83110       -1.23940        1.36190
H          2.60770       -2.00760        4.25070
H          3.89780       -0.39220        1.97430
H          5.32340       -1.62150        4.21330
H          4.53820       -0.14290        4.81760
H          6.80790        0.32010        4.01250
H          5.58770        1.15020        3.01740
H          6.37290       -0.32850        2.41300
