49
alpha-Linolenic acid
O         -5.51010        0.66250        2.14770
C         -4.86990        1.58220        2.67870
O         -5.44890        2.53190        3.22700
C         -3.36990        1.58220        2.67870
C         -2.86990        2.28930        1.45400
C         -3.36990        1.58220        0.22920
C         -2.86990        0.16800        0.22920
C         -3.36990       -0.53910       -0.99550
C         -2.86990       -1.95330       -0.99550
C         -1.36990       -1.95330       -0.99550
C         -0.86990       -1.24620       -2.22030
C          0.29830       -0.58850       -2.21130
C          1.14780       -0.53570       -0.97620
C          2.09770       -1.69670       -0.97270
C          3.29880       -1.60650       -0.38400
C          3.73650       -0.34140        0.29260
C          5.22890       -0.21830        0.20540
C          5.81270        0.40580       -0.82750
C          7.30510        0.52890       -0.91470
C          7.86230       -0.65420       -1.64950
H         -3.00660        0.55460        2.67870
H         -3.00660        2.09610        3.56870
H         -1.77990        2.28930        1.45400
H         -3.23320        3.31700        1.45400
H         -3.00660        2.09610       -0.66070
H         -4.45990        1.58220        0.22920
H         -1.77990        0.16800        0.22920
H         -3.23320       -0.34580        1.11920
H         -4.45990       -0.53910       -0.99550
H         -3.00660       -0.02520       -1.88550
H         -3.23320       -2.46710       -1.88550
H         -3.23320       -2.46710       -0.10550
H         -1.00660       -2.98100       -0.99550
H         -1.00660       -1.43950       -0.10550
H         -1.48170       -1.28420       -3.10980
H          0.65840       -0.07920       -3.09330
H          1.71300        0.39620       -0.96350
H          0.50980       -0.58570       -0.09390
H          1.78240       -2.60780       -1.46010
H          3.98280       -2.44260       -0.38160
H          3.43450       -0.36610        1.33970
H          3.27210        0.51320       -0.19930
H          5.81790       -0.64880        1.00210
H          5.22370        0.83630       -1.62420
H          7.72610        0.56370        0.09010
H          7.56370        1.44310       -1.44890
H          8.94680       -0.56470       -1.71280
H          7.44130       -0.68910       -2.65430
H          7.60370       -1.56840       -1.11530
