49
alpha-Linolenic acid
O         -5.86770        3.28620        1.36860
C         -5.22760        2.22430        1.36860
O         -5.80660        1.12780        1.36860
C         -3.72760        2.22430        1.36860
C         -3.22760        0.81010        1.36860
C         -3.72760        0.10300        0.14390
C         -3.22760        0.81010       -1.08090
C         -1.72760        0.81010       -1.08090
C         -1.22760       -0.60420       -1.08090
C          0.27240       -0.60420       -1.08090
C          0.77240        0.10300        0.14390
C          1.94060        0.76070        0.13490
C          2.79020        0.81340       -1.10020
C          4.23460        0.91740       -0.70940
C          5.12040       -0.01920       -1.07760
C          4.69920       -1.20510       -1.89380
C          3.66060       -1.98510       -1.14350
C          3.92720       -2.51450        0.05890
C          2.88860       -3.29450        0.80920
C          3.46110       -3.76340        2.11390
H         -3.36420        2.73810        2.25860
H         -3.36420        2.73810        0.47870
H         -3.59090        0.29620        2.25860
H         -2.13760        0.81010        1.36860
H         -4.81760        0.10300        0.14390
H         -3.36420       -0.92470        0.14390
H         -3.59090        0.29620       -1.97080
H         -3.59090        1.83770       -1.08090
H         -1.36420        1.32390       -1.97080
H         -1.36420        1.32390       -0.19090
H         -1.59090       -1.11800       -1.97080
H         -1.59090       -1.11800       -0.19090
H          0.63580       -0.09030       -1.97080
H          0.63580       -1.63180       -1.08090
H          0.16060        0.06500        1.03340
H          2.30070        1.26990        1.01700
H          2.63650       -0.09300       -1.68580
H          2.51150        1.68260       -1.69600
H          4.53790        1.77150       -0.12160
H          6.16070        0.05570       -0.79620
H          5.56390       -1.84090       -2.08400
H          4.28320       -0.86440       -2.84190
H          2.69070       -2.10620       -1.60360
H          4.89710       -2.39340        0.51900
H          2.58260       -4.15630        0.21610
H          2.02390       -2.65870        0.99940
H          2.70640       -4.33010        2.65920
H          3.76720       -2.90160        2.70700
H          4.32590       -4.39910        1.92370
