49
alpha-Linolenic acid
O         -0.55560        3.65200        0.92060
C         -1.26960        4.23520        0.09130
O         -1.59350        5.42190        0.24750
C         -1.76960        3.52810       -1.13340
C         -3.26960        3.52810       -1.13340
C         -3.76960        2.82100       -2.35820
C         -3.26960        1.40680       -2.35820
C         -3.76960        0.69970       -1.13340
C         -3.26960       -0.71450       -1.13340
C         -1.76960       -0.71450       -1.13340
C         -1.26960       -0.00740        0.09130
C         -0.49760       -0.63790        0.98790
C         -0.10580       -2.07350        0.79890
C          0.75300       -2.51280        1.94760
C          2.08670       -2.38400        1.90360
C          2.76870       -1.79600        0.70400
C          4.13580       -2.39660        0.56170
C          4.29780       -3.71690        0.39490
C          5.66490       -4.31750        0.25250
C          6.47170       -4.02110        1.48180
H         -1.40620        2.50040       -1.13340
H         -1.40620        4.04190       -2.02340
H         -3.63290        4.55580       -1.13340
H         -3.63290        3.01430       -0.24350
H         -3.40620        3.33480       -3.24820
H         -4.85960        2.82100       -2.35820
H         -3.63290        0.89300       -3.24820
H         -2.17960        1.40680       -2.35820
H         -3.40620        1.21350       -0.24350
H         -4.85960        0.69970       -1.13340
H         -3.63290       -1.22840       -2.02340
H         -3.63290       -1.22840       -0.24350
H         -1.40620       -0.20070       -2.02340
H         -1.40620       -1.74220       -1.13340
H         -1.55170        1.02640        0.22740
H         -0.13750       -0.12870        1.86990
H         -1.00210       -2.69240        0.75790
H          0.45120       -2.17850       -0.13210
H          0.26180       -2.93620        2.81160
H          2.70510       -2.70040        2.73090
H          2.85720       -0.71680        0.82900
H          2.18240       -2.01140       -0.18930
H          4.98560       -1.73060        0.59790
H          3.44800       -4.38290        0.35860
H          6.16050       -3.89020       -0.61920
H          5.57640       -5.39670        0.12750
H          7.46520       -4.45750        1.37840
H          5.97610       -4.44840        2.35350
H          6.56020       -2.94190        1.60680
