52
14(15)-EpETE
C         -0.76140        2.63500       -1.87990
C         -1.57060        3.69680       -1.19600
C         -2.53300        3.05480       -0.24120
C         -1.77080        2.26890        0.78420
C         -2.73310        1.62690        1.73900
C         -3.22700        0.40270        1.50530
C         -2.83520       -0.36970        0.28060
C         -3.53560       -1.69610        0.28060
C         -2.84350       -2.84420        0.28060
C         -1.34350       -2.84420        0.28060
C         -0.84350       -2.84420        1.69480
C          0.46970       -2.84420        1.96460
C          1.48680       -2.84420        0.86210
C          1.82590       -1.43000        0.49460
O          1.16400       -0.41810        1.21210
C          2.53990       -0.54990        1.46930
C          3.42310        0.55900        0.97890
C          4.42630        0.00760        0.00950
C          4.16100       -0.04960       -1.30330
C          2.85140        0.43550       -1.85070
C          2.50210       -0.34890       -3.08060
O         -0.78590        2.50620       -3.11290
O         -0.06720        1.89020       -1.17210
H         -2.12450        4.26790       -1.94110
H         -0.90540        4.36390       -0.64770
H         -3.19820        2.38770       -0.78940
H         -3.12100        3.82640        0.25580
H         -1.10550        2.93600        1.33250
H         -1.18280        1.49730        0.28720
H         -3.01530        2.18310        2.62100
H         -3.92010       -0.05970        2.19290
H         -3.11990        0.19160       -0.60940
H         -1.75680       -0.52820        0.28060
H         -4.61590       -1.69610        0.28060
H         -3.34790       -3.79950        0.28060
H         -0.98010       -1.95430       -0.23330
H         -0.98010       -3.73420       -0.23330
H         -1.57600       -2.84420        2.48880
H          0.82980       -2.84420        2.98310
H          1.07910       -3.35810       -0.00840
H          2.38730       -3.35810        1.19850
H          1.94370       -1.27010       -0.57880
H          2.81810       -0.93210        2.45330
H          2.81510        1.31490        0.48200
H          3.94390        1.00940        1.82390
H          5.36940       -0.34180        0.40370
H          4.88350       -0.44670       -2.00150
H          2.07200        0.30130       -1.10060
H          2.93300        1.49240       -2.10480
H          1.55050        0.00360       -3.47830
H          3.28150       -0.21470       -3.83070
H          2.42060       -1.40580       -2.82640
