52
14(15)-EpETE
C         -3.45230        1.93880        2.82700
C         -2.97730        1.42400        4.15340
C         -1.56490        0.93580        4.02370
C         -0.68380        2.06640        3.58150
C         -1.15870        2.58120        2.25510
C         -0.68940        2.07250        1.10690
C          0.32770        0.97000        1.10690
C         -0.37270       -0.35650        1.10690
C          0.31940       -1.50460        1.10690
C          1.81940       -1.50460        1.10690
C          2.31940       -2.91880        1.10690
C          3.09130       -3.38000        0.11260
C          3.48320       -2.49860       -1.03610
C          2.45910       -2.61300       -2.12610
O          1.14310       -2.24660       -1.79330
C          1.81130       -1.38570       -2.68180
C          1.31700       -1.36820       -4.09790
C         -0.12130       -0.94270       -4.12020
C         -0.45910        0.34990       -4.23060
C          0.58900        1.41790       -4.33590
C          0.06960        2.68930       -3.73260
O         -4.29170        2.84870        2.75670
O         -2.97810        1.42480        1.80290
H         -3.61760        0.60250        4.47470
H         -3.01830        2.22620        4.89020
H         -1.52400        0.13370        3.28680
H         -1.21980        0.56180        4.98750
H          0.34250        1.71170        3.48720
H         -0.72480        2.86860        4.31840
H         -1.89120        3.37520        2.25510
H         -1.03150        2.44320        0.15160
H          0.95170        1.05130        0.21690
H          0.95170        1.05130        1.99690
H         -1.45300       -0.35650        1.10690
H         -0.18500       -2.45990        1.10690
H          2.18270       -0.99080        1.99690
H          2.18270       -0.99080        0.21700
H          2.03720       -3.55360        1.93420
H          3.45140       -4.39850        0.11260
H          4.45590       -2.80950       -1.41730
H          3.53940       -1.46400       -0.69760
H          2.57550       -3.50240       -2.74830
H          2.08030       -0.40030       -2.29690
H          1.91250       -0.66650       -4.68190
H          1.40730       -2.36620       -4.52660
H         -0.87600       -1.71190       -4.04430
H         -1.49490        0.65630       -4.24670
H          1.48490        1.10170       -3.80160
H          0.83200        1.58630       -5.38500
H          0.83120        3.46530       -3.80910
H         -0.82630        3.00550       -4.26690
H         -0.17340        2.52080       -2.68350
