52
14(15)-EpETE
C         -5.00500        3.99340       -0.95240
C         -4.94690        2.54290       -1.33020
C         -3.53010        2.05880       -1.23880
C         -3.47190        0.60830       -1.61660
C         -2.05510        0.12420       -1.52530
C         -1.57210       -0.39170       -0.38610
C         -2.43090       -0.50370        0.83860
C         -3.13130       -1.83010        0.83860
C         -2.43920       -2.97830        0.83860
C         -0.93920       -2.97830        0.83860
C         -0.43920       -2.27120        2.06340
C          0.87400       -2.13630        2.29700
C          1.89110       -2.68750        1.34230
C          2.74990       -1.57090        0.82690
O          4.12800       -1.66530        1.08890
C          3.74880       -1.82780       -0.25520
C          4.13830       -0.72930       -1.19950
C          5.63130       -0.58530       -1.21040
C          6.25320        0.24180       -0.35810
C          5.47850        1.05350        0.63750
C          5.11220        2.37450        0.02870
O         -5.41770        4.84700       -1.75150
O         -4.62680        4.31100        0.18500
H         -5.30820        2.41860       -2.35100
H         -5.57280        1.96500       -0.65030
H         -3.16870        2.18310       -0.21800
H         -2.90410        2.63670       -1.91880
H         -3.83330        0.48400       -2.63750
H         -4.09790        0.03040       -0.93670
H         -1.43670        0.20490       -2.40740
H         -0.55180       -0.74040       -0.32030
H         -1.80680       -0.42230        1.72860
H         -3.17000        0.29750        0.83860
H         -4.21160       -1.83010        0.83860
H         -2.94360       -3.93360        0.83860
H         -0.57580       -2.46440       -0.05140
H         -0.57580       -4.00590        0.83860
H         -1.17170       -1.87420        2.75100
H          1.23410       -1.62700        3.17910
H          1.38220       -3.16940        0.50750
H          2.51520       -3.41760        1.85770
H          2.29910       -0.58260        0.93510
H          3.85810       -2.82920       -0.67560
H          3.78930       -0.97210       -2.20310
H          3.68530        0.20720       -0.87400
H          6.18920       -1.16990       -1.92740
H          7.32840        0.34550       -0.36600
H          4.57110        0.51750        0.91580
H          6.08930        1.21920        1.52490
H          4.54930        2.96430        0.75220
H          6.01960        2.91050       -0.24960
H          4.50140        2.20880       -0.85870
