52
14(15)-EpETE
C         -1.22990        6.20560        0.62570
C         -0.40760        5.56340       -0.45200
C         -1.31000        5.07920       -1.54800
C         -2.27740        4.07630       -0.99270
C         -3.17980        3.59210       -2.08870
C         -3.22550        2.29520       -2.42530
C         -2.37590        1.28120       -1.71820
C         -3.07630       -0.04520       -1.71820
C         -2.38420       -1.19340       -1.71820
C         -0.88420       -1.19340       -1.71820
C         -0.38420       -2.41810       -2.42530
C          0.78390       -2.98320       -2.08870
C          1.63350       -2.41140       -0.99270
C          2.41130       -3.51330       -0.33630
O          3.81250       -3.40610       -0.38020
C          3.22570       -3.23470        0.88590
C          3.47260       -4.31940        1.89200
C          2.16310       -4.91530        2.31640
C          1.48350       -4.42050        3.36060
C          2.00790       -3.25290        4.14270
C          2.86610       -3.74970        5.26810
O         -1.67200        5.54160        1.57500
O         -1.45330        7.42200        0.53630
H          0.14280        4.71990       -0.03520
H          0.29540        6.29220       -0.85550
H         -0.71240        4.61260       -2.33110
H         -1.86030        5.92270       -1.96480
H         -2.87490        4.54290       -0.20960
H         -1.72700        3.23280       -0.57590
H         -3.79160        4.32240       -2.59790
H         -3.87540        1.94650       -3.21460
H         -1.41930        1.18690       -2.23200
H         -2.20630        1.60250       -0.69050
H         -4.15660       -0.04520       -1.71820
H         -2.88860       -2.14870       -1.71820
H         -0.52090       -1.19340       -0.69050
H         -0.52090       -0.30340       -2.23200
H         -0.99610       -2.83000       -3.21460
H          1.14400       -3.86530       -2.59790
H          0.99540       -1.92690       -0.25360
H          2.32370       -1.67950       -1.41230
H          1.99240       -4.50750       -0.50260
H          3.25830       -2.22790        1.30670
H          4.09660       -5.09370        1.44570
H          3.97970       -3.90030        2.76110
H          1.78550       -5.75630        1.75310
H          0.54040       -4.84970        3.66630
H          2.60090       -2.61400        3.48830
H          1.17220       -2.68210        4.54770
H          3.24720       -2.90130        5.83640
H          2.27310       -4.38860        5.92260
H          3.70180       -4.32050        4.86310
