52
14(15)-EpETE
C         -4.69340        3.99680        2.40300
C         -3.78910        5.14870        2.72720
C         -2.39860        4.64030        2.96840
C         -1.90000        3.94450        1.73670
C         -1.88740        4.90900        0.58790
C         -0.99620        4.78950       -0.40640
C          0.02090        3.68700       -0.40640
C         -0.67950        2.36060       -0.40640
C          0.01260        1.21240       -0.40640
C          1.51260        1.21240       -0.40640
C          2.01260        0.50530        0.81840
C          2.24330       -0.81530        0.80940
C          2.00990       -1.63380       -0.42570
C          2.95970       -2.79460       -0.44320
O          2.87360       -3.69360        0.63440
C          2.44280       -4.18730       -0.60950
C          3.30060       -5.23990       -1.24690
C          2.49640       -6.49140       -1.43920
C          1.80310       -6.70220       -2.56710
C          1.80650       -5.69420       -3.67790
C          0.95180       -6.19070       -4.80620
O         -5.67680        4.14370        1.66200
O         -4.42570        2.89270        2.90010
H         -4.15140        5.65440        3.62220
H         -3.77990        5.84960        1.89240
H         -2.40770        3.93950        3.80310
H         -1.74140        5.47740        3.20400
H         -2.55710        3.10740        1.50110
H         -0.88960        3.57500        1.91190
H         -2.62000        5.70300        0.58790
H         -0.98720        5.48410       -1.23370
H          0.64490        3.76840       -1.29640
H          0.64490        3.76840        0.48360
H         -1.75980        2.36060       -0.40640
H         -0.49180        0.25720       -0.40640
H          1.87600        2.24010       -0.40640
H          1.87600        0.69860       -1.29640
H          2.18080        1.09490        1.70790
H          2.60340       -1.32450        1.69150
H          2.17540       -1.01560       -1.30800
H          0.98440       -2.00340       -0.42820
H          3.96400       -2.53680       -0.78470
H          1.37160       -4.36640       -0.71910
H          3.65480       -4.88340       -2.21410
H          4.15420       -5.45190       -0.60300
H          2.49400       -7.21740       -0.63920
H          1.22390       -7.60350       -2.70560
H          1.40970       -4.74770       -3.31080
H          2.82680       -5.54740       -4.03230
H          0.95420       -5.45820       -5.61340
H          1.34860       -7.13720       -5.17330
H         -0.06850       -6.33740       -4.45180
