52
14(15)-EpETE
C          1.80980        3.92730       -0.62600
C          1.25950        5.21080       -0.07850
C         -0.05970        4.94670        0.58470
C          0.13080        3.96650        1.70410
C         -1.18840        3.70240        2.36730
C         -1.45000        2.51950        2.94140
C         -0.43290        1.41700        2.94140
C         -1.13330        0.09050        2.94140
C         -0.44110       -1.05760        2.94140
C          1.05890       -1.05760        2.94140
C          1.55890       -0.35050        1.71670
C          1.78960       -1.01860        0.57750
C          1.55610       -2.49750        0.48610
C          0.14490       -2.75470        0.04740
O         -0.65710       -1.62360       -0.18520
C         -0.29920       -2.36430       -1.32550
C         -1.40060       -3.12130       -2.00650
C         -1.53990       -2.63810       -3.41970
C         -1.37670       -3.47290       -4.45590
C         -1.04890       -4.92060       -4.23980
C         -2.31960       -5.71110       -4.13700
O          2.90280        3.48430       -0.24300
O          1.13600        3.32350       -1.47400
H          1.12110        5.92300       -0.89190
H          1.95670        5.62320        0.65090
H         -0.75690        4.53430       -0.14460
H         -0.45950        5.87940        0.98260
H          0.82800        4.37890        2.43350
H          0.53060        3.03380        1.30630
H         -1.92100        4.49640        2.36730
H         -2.40010        2.32920        3.41910
H          0.19120        1.49830        2.05140
H          0.19120        1.49830        3.83140
H         -2.21350        0.09050        2.94140
H         -0.94560       -2.01290        2.94140
H          1.42220       -2.08530        2.94140
H          1.42220       -0.54380        3.83140
H          1.72700        0.71460        1.78250
H          2.14970       -0.50930       -0.30460
H          1.72170       -2.95240        1.46270
H          2.24630       -2.93020       -0.23800
H         -0.33010       -3.59270        0.56110
H          0.40130       -1.89010       -2.01540
H         -1.16330       -4.18520       -2.00800
H         -2.33710       -2.95870       -1.47290
H         -1.77600       -1.59550       -3.57530
H         -1.47700       -3.12490       -5.47360
H         -0.45890       -5.28870       -5.07910
H         -0.47730       -5.03010       -3.31810
H         -2.08130       -6.76310       -3.98000
H         -2.90960       -5.34290       -3.29770
H         -2.89110       -5.60160       -5.05870
