52
14(15)-EpETE
C         -0.25240        5.06840       -0.82050
C         -0.78910        3.95040        0.02330
C         -2.10840        3.49680       -0.52790
C         -2.64510        2.37890        0.31600
C         -3.96430        1.92530       -0.23530
C         -4.37090        0.65490       -0.10040
C         -3.52130       -0.35910        0.60670
C         -4.22170       -1.68560        0.60670
C         -3.52960       -2.83370        0.60670
C         -2.02960       -2.83370        0.60670
C         -1.52960       -4.05840        1.31380
C         -0.36140       -4.62350        0.97720
C          0.48810       -4.05170       -0.11880
C          1.43800       -3.04460        0.45870
O          2.80930       -3.30380        0.28820
C          2.29710       -2.21740       -0.44260
C          2.74400       -0.85090       -0.01470
C          3.44980       -0.17630       -1.15350
C          4.72610        0.21820       -1.04040
C          5.49470       -0.00060        0.22900
C          5.94470        1.32200        0.77520
O         -0.02830        6.18680       -0.33420
O         -0.04010        4.83770       -2.02020
H         -0.92400        4.30020        1.04680
H         -0.08570        3.11790        0.01360
H         -1.97350        3.14700       -1.55140
H         -2.81180        4.32940       -0.51820
H         -2.77990        2.72870        1.33950
H         -1.94170        1.54630        0.30620
H         -4.57620        2.65550       -0.74450
H         -5.32100        0.32820       -0.49740
H         -2.56470       -0.45340        0.09290
H         -3.35170       -0.03780        1.63440
H         -5.30200       -1.68560        0.60670
H         -4.03400       -3.78900        0.60670
H         -1.66630       -1.94370        1.12060
H         -1.66630       -2.83370       -0.42090
H         -2.14140       -4.47030        2.10320
H         -0.00130       -5.50560        1.48650
H         -0.14990       -3.56720       -0.85790
H          1.05330       -4.85240       -0.59570
H          1.13170       -2.65820        1.43260
H          2.23740       -2.34230       -1.52540
H          1.87610       -0.25930        0.27640
H          3.42390       -0.93980        0.83260
H          2.89630       -0.01880       -2.06770
H          5.23440        0.70400       -1.86050
H          4.85600       -0.49710        0.95950
H          6.36490       -0.62410        0.02390
H          6.50330        1.16300        1.69770
H          6.58340        1.81850        0.04470
H          5.07450        1.94550        0.98030
