54
12-HETE
C         -1.35110        0.70270        0.10310
C         -2.76790        1.18680        0.19450
C         -2.85100        2.30480        1.19100
C         -4.26780        2.78890        1.28240
C         -4.35090        3.90690        2.27890
O         -4.56670        3.81780        3.48230
O         -4.14620        5.08960        1.64530
C         -0.86810        0.18670       -1.03610
C         -1.72690        0.07480       -2.26080
C         -2.42730       -1.25170       -2.26080
C         -1.73510       -2.39980       -2.26080
C         -0.23510       -2.39980       -2.26080
C          0.45700       -3.54800       -2.26080
C          1.95700       -3.54800       -2.26080
O          2.41700       -4.19850       -1.13400
C          2.45700       -2.13380       -2.26080
C          3.95700       -2.13380       -2.26080
C          4.64910       -2.13380       -1.11270
C          3.94870       -2.13380        0.21380
C          4.34050       -0.90900        0.98610
C          3.64010       -0.90900        2.31250
C          4.03190        0.31570        3.08480
C          3.64010        1.54050        2.31250
H          2.32030       -4.06180       -3.15080
H         -0.73270        0.78330        0.98520
H         -3.41210        0.36730        0.51320
H         -3.09300        1.54560       -0.78210
H         -2.52600        1.94600        2.16760
H         -2.20690        3.12430        0.87220
H         -4.59290        3.14770        0.30580
H         -4.91200        1.96940        1.60110
H         -4.20090        5.78370        2.28210
H          0.15230       -0.16190       -1.10190
H         -1.10280        0.15610       -3.15080
H         -2.46600        0.87590       -2.26080
H         -3.50760       -1.25170       -2.26080
H         -2.23960       -3.35510       -2.26080
H          0.26930       -1.44450       -2.26080
H         -0.04750       -4.50330       -2.26080
H          2.09360       -1.61990       -1.37080
H          2.09360       -1.61990       -3.15080
H          4.46140       -2.13380       -3.21610
H          5.72940       -2.13380       -1.11270
H          2.87030       -2.13380        0.05520
H          4.23340       -3.02370        0.77500
H          5.41890       -0.90900        1.14460
H          4.05580       -0.01900        0.42490
H          3.92480       -1.79900        2.87370
H          2.56170       -0.90900        2.15400
H          3.52300        0.31570        4.04870
H          5.11030        0.31570        3.24340
H          3.92480        2.43050        2.87370
H          4.14910        1.54050        1.34870
H          2.56170        1.54050        2.15400
