54
12-HETE
C         -3.61400        3.02770       -0.57720
C         -2.29480        3.29180       -1.24040
C         -2.37480        2.90040       -2.68620
C         -1.05550        3.16450       -3.34950
C         -0.72630        4.62420       -3.24410
O         -1.37480        5.56770       -3.68210
O          0.44070        4.77370       -2.56740
C         -3.87550        1.84480       -0.00310
C         -2.85840        0.74230       -0.00310
C         -3.55880       -0.58410       -0.00310
C         -2.86670       -1.73230       -0.00310
C         -1.36670       -1.73230       -0.00310
C         -0.67460       -2.88040       -0.00310
C          0.82540       -2.88040       -0.00310
O          1.28540       -2.88040       -1.30420
C          1.32540       -4.10520        0.70400
C          2.82540       -4.10520        0.70400
C          3.51750       -4.10520        1.85210
C          2.81710       -4.10520        3.17860
C          3.66670       -3.39810        4.19260
C          3.90020       -1.98390        3.75040
C          2.58370       -1.27680        3.62070
C          2.81710        0.13750        3.17860
H          1.18870       -1.99050        0.51070
H         -4.34650        3.82170       -0.57720
H         -1.51730        2.70750       -0.74830
H         -2.05550        4.35250       -1.16390
H         -2.61400        1.83970       -2.76280
H         -3.15230        3.48470       -3.17840
H         -0.27800        2.58030       -2.85730
H         -1.11370        2.88010       -4.40010
H          0.63640        5.69490       -2.50800
H         -4.82560        1.65460        0.47450
H         -2.23440        0.82370        0.88690
H         -2.23440        0.82370       -0.89310
H         -4.63910       -0.58420       -0.00310
H         -3.37110       -2.68760       -0.00310
H         -0.86230       -0.77700       -0.00310
H         -1.17900       -3.83570       -0.00310
H          0.96210       -4.99520        0.19020
H          0.96210       -4.10520        1.73160
H          3.32980       -4.10520       -0.25130
H          4.59780       -4.10520        1.85210
H          1.86050       -3.59130        3.08430
H          2.64750       -5.13280        3.49990
H          3.15770       -3.39810        5.15650
H          4.62340       -3.91190        4.28690
H          4.40910       -1.98390        2.78660
H          4.51750       -1.47000        4.48730
H          1.96630       -1.79060        2.88390
H          2.07470       -1.27680        4.58460
H          1.86050        0.65130        3.08430
H          3.43450        0.65130        3.91540
H          3.32610        0.13750        2.21470
