54
12-HETE
C         -1.20870        2.29830       -0.42450
C         -2.62550        2.78240       -0.33320
C         -2.88760        3.30410        1.04850
C         -4.30430        3.78820        1.13990
C         -4.56640        4.31000        2.52160
O         -3.78140        4.35560        3.46200
O         -5.84880        4.74710        2.60100
C         -0.72570        1.78230       -1.56370
C         -1.58450        1.67040       -2.78850
C         -2.28490        0.34390       -2.78850
C         -1.59280       -0.80420       -2.78850
C         -0.09280       -0.80420       -2.78850
C          0.59940       -1.95240       -2.78850
C          2.09940       -1.95240       -2.78850
O          2.55940       -2.60290       -3.91520
C          2.59940       -2.65950       -1.56370
C          2.09940       -1.95240       -0.33900
C          2.80610       -1.95750        0.80020
C          4.12260       -2.67060        0.89150
C          3.89480       -4.08680        1.33020
C          5.21130       -4.79990        1.42160
C          6.08940       -4.10290        2.41810
C          5.42310       -4.10900        3.76200
H          2.46270       -0.92470       -2.78850
H         -0.59030        2.37890        0.45750
H         -3.30570        1.95740       -0.54510
H         -2.78450        3.58000       -1.05890
H         -2.72860        2.50660        1.77430
H         -2.20730        4.12910        1.26040
H         -4.46330        4.58580        0.41410
H         -4.98450        2.96330        0.92790
H         -6.00070        5.07230        3.47360
H          0.29460        1.43370       -1.62950
H         -0.96050        1.75170       -3.67850
H         -2.32360        2.47150       -2.78850
H         -3.36520        0.34390       -2.78850
H         -2.09720       -1.75950       -2.78850
H          0.41170        0.15110       -2.78850
H          0.09490       -2.90770       -2.78850
H          3.68940       -2.65950       -1.56370
H          2.23600       -3.68710       -1.56370
H          1.15120       -1.43880       -0.40480
H          2.44600       -1.44830        1.68230
H          4.60670       -2.66620       -0.08500
H          4.76070       -2.16410        1.61570
H          3.41060       -4.09130        2.30680
H          3.25670       -4.59330        0.60610
H          5.69540       -4.79550        0.44500
H          5.04570       -5.82900        1.74040
H          7.04600       -4.62110        2.48450
H          6.25490       -3.07380        2.09930
H          6.06120       -3.60250        4.48620
H          4.46650       -3.59080        3.69570
H          5.25760       -5.13810        4.08080
