54
12-HETE
C         -2.62760        3.31060       -1.61870
C         -2.27750        4.08650       -0.38360
C         -3.04840        5.37310       -0.36610
C         -2.69920        6.18170       -1.58030
C         -3.47010        7.46830       -1.56280
O         -3.85340        8.12040       -2.52760
O         -3.70050        7.83650       -0.27690
C         -2.59140        1.97050       -1.62770
C         -2.19960        1.19810       -0.40290
C         -2.90000       -0.12830       -0.40290
C         -2.20790       -1.27640       -0.40290
C         -0.70790       -1.27640       -0.40290
C         -0.01570       -2.42460       -0.40290
C          1.48430       -2.42460       -0.40290
O          1.94430       -2.42460       -1.70400
C          1.98430       -3.64930        0.30420
C          3.48430       -3.64930        0.30420
C          4.17640       -4.22340        1.29850
C          3.47600       -4.88660        2.44720
C          3.24250       -6.33240        2.12300
C          4.55900       -7.00970        1.88180
C          5.40860       -6.90430        3.11360
C          6.72510       -7.58150        2.87240
H          1.84760       -1.53460        0.11090
H         -2.90970        3.86680       -2.50080
H         -1.20920        4.30290       -0.38110
H         -2.53120        3.49890        0.49870
H         -4.11670        5.15660       -0.36860
H         -2.79400        5.93690        0.53140
H         -1.63090        6.39810       -1.57780
H         -2.95360        5.61790       -2.47780
H         -4.18540        8.64600       -0.27970
H         -2.84350        1.41170       -2.51720
H         -2.48430        1.75940        0.48710
H         -1.12120        1.03960       -0.40290
H         -3.98030       -0.12830       -0.40290
H         -2.71230       -2.23170       -0.40290
H         -0.20340       -0.32110       -0.40290
H         -0.52020       -3.37990       -0.40290
H          1.62090       -4.53930       -0.20960
H          1.62090       -3.64930        1.33190
H          3.98870       -3.17170       -0.52310
H          5.25670       -4.22340        1.29850
H          4.09330       -4.81010        3.34230
H          2.51930       -4.39450        2.62250
H          2.73350       -6.81440        2.95780
H          2.62520       -6.40900        1.22800
H          5.06800       -6.52770        1.04710
H          4.38940       -8.06030        1.64630
H          5.57820       -5.85370        3.34910
H          4.89960       -7.38630        3.94830
H          7.34240       -7.50500        3.76740
H          6.55540       -8.63220        2.63680
H          7.23400       -7.09960        2.03760
