54
12-HETE
C         -2.78010        1.55090       -1.06070
C         -2.96990        2.61180       -0.01740
C         -2.87870        3.96510       -0.65810
C         -1.53070        4.12650       -1.29600
C         -0.46370        3.99560       -0.24990
O          0.02710        4.89010        0.42970
O         -0.09260        2.69410       -0.14710
C         -2.81790        0.24980       -0.73960
C         -3.05140       -0.19230        0.67460
C         -3.75180       -1.51870        0.67460
C         -3.05970       -2.66690        0.67460
C         -1.55970       -2.66690        0.67460
C         -0.86760       -3.81500        0.67460
C          0.63240       -3.81500        0.67460
O          1.09240       -2.68830        1.32520
C          1.13240       -3.81500       -0.73960
C          0.63240       -2.59030       -1.44670
C          1.33920       -1.45110       -1.44150
C          2.65570       -1.35980       -0.72840
C          3.21680        0.02200       -0.88960
C          4.53330        0.11330       -0.17660
C          4.33370       -0.17830        1.28120
C          5.65020       -0.08700        1.99430
H          0.99580       -4.70500        1.18850
H         -2.61200        1.86930       -2.07920
H         -2.19450        2.51670        0.74270
H         -3.94940        2.49450        0.44610
H         -3.65410        4.06010       -1.41830
H         -3.01660        4.73600        0.10000
H         -1.39280        3.35550       -2.05410
H         -1.46450        5.10980       -1.76150
H          0.57800        2.62530        0.51310
H         -2.68120       -0.51420       -1.49090
H         -3.66870        0.54460        1.18850
H         -2.09470       -0.28660        1.18850
H         -4.83210       -1.51870        0.67460
H         -3.56410       -3.62220        0.67460
H         -1.05520       -1.71160        0.67460
H         -1.37200       -4.77030        0.67460
H          0.76910       -4.70500       -1.25340
H          2.22240       -3.81500       -0.73960
H         -0.31570       -2.65610       -1.96030
H          0.97910       -0.56900       -1.95080
H          2.51060       -1.57170        0.33090
H          3.34970       -2.08550       -1.15240
H          3.36190        0.23390       -1.94900
H          2.52290        0.74770       -0.46570
H          4.94110        1.11740       -0.29370
H          5.22730       -0.61240       -0.60060
H          3.63970        0.54740        1.70520
H          3.92590       -1.18240        1.39830
H          5.50510       -0.29890        3.05360
H          6.34420       -0.81270        1.57030
H          6.05790        0.91710        1.87710
