54
12-HETE
C         -3.22070        2.46580       -0.22010
C         -2.31830        2.95000       -1.31610
C         -2.92960        4.15230       -1.97250
C         -2.02720        4.63660       -3.06850
C         -2.63840        5.83890       -3.72480
O         -2.95870        5.96320       -4.90150
O         -2.79950        6.82120       -2.80210
C         -3.26650        1.16890        0.11650
C         -2.41690        0.15490       -0.59060
C         -3.11730       -1.17150       -0.59060
C         -2.42520       -2.31970       -0.59060
C         -0.92520       -2.31970       -0.59060
C         -0.23310       -3.46780       -0.59060
C          1.26690       -3.46780       -0.59060
O          1.72690       -4.76890       -0.59060
C          1.76690       -2.76070        0.63410
C          3.26690       -2.76070        0.63410
C          3.95910       -2.76070        1.78230
C          3.25870       -2.76070        3.10870
C          4.10820       -2.05360        4.12270
C          5.42470       -2.76070        4.25250
C          5.19130       -4.17490        4.69460
C          4.49090       -4.17490        6.02110
H          1.63030       -2.95400       -1.48060
H         -3.83260        3.19610        0.28910
H         -2.18790        2.15960       -2.05520
H         -1.34890        3.21870       -0.89650
H         -3.89900        3.88370       -2.39210
H         -3.06000        4.94280       -1.23340
H         -1.05770        4.90520       -2.64880
H         -1.89670        3.84610       -3.80760
H         -3.18420        7.57070       -3.22690
H         -3.91640        0.82020        0.90580
H         -1.46020        0.06060       -0.07680
H         -2.24720        0.47620       -1.61830
H         -4.19760       -1.17150       -0.59060
H         -2.92960       -3.27500       -0.59060
H         -0.42070       -1.36440       -0.59060
H         -0.73750       -4.42310       -0.59060
H          1.40360       -3.27450        1.52410
H          1.40360       -1.73310        0.63410
H          3.77140       -2.76070       -0.32110
H          5.03940       -2.76070        1.78230
H          2.30200       -2.24690        3.01450
H          3.08900       -3.78840        3.43000
H          4.27790       -1.02590        3.80150
H          3.59930       -2.05360        5.08660
H          6.04210       -2.24690        4.98930
H          5.93370       -2.76070        3.28860
H          4.57390       -4.68880        3.95780
H          6.14790       -4.68880        4.78890
H          4.32120       -5.20260        6.34240
H          5.10820       -3.66110        6.75790
H          3.53420       -3.66110        5.92680
