52
15(S)-HEPE
C          0.35600       -0.95740       -2.23220
C          1.85600       -0.95740       -2.23220
C          2.35600       -2.37160       -2.23220
C          2.04550       -3.21550       -1.23790
C          1.18680       -2.77620       -0.08920
C          0.87620       -3.62010        0.90510
C          0.01750       -3.18080        2.05390
O         -1.30820       -3.42170        1.75560
C          0.40000       -3.94670        3.28560
C          0.20030       -5.41370        3.04440
C          0.96290       -6.32680        3.66240
C          2.04360       -5.91470        4.61760
C          1.43990       -5.14100        5.75200
C         -0.33610        0.19080       -2.23220
C          0.36430        1.51720       -2.23220
C          0.59780        1.95930       -0.81800
C          0.07900        3.10620       -0.35680
C         -0.75390        3.98910       -1.23830
C         -2.12280        4.14050       -0.64400
C         -2.95570        5.02340       -1.52540
C         -2.30770        6.37150       -1.63830
O         -2.48540        7.34630       -0.91660
O         -1.45640        6.37360       -2.69540
H          0.16260       -2.11490        2.22910
H         -0.14840       -1.91270       -2.23220
H          2.21940       -0.44360       -3.12220
H          2.21940       -0.44360       -1.34230
H          2.97450       -2.68800       -3.05950
H          2.40560       -4.23400       -1.23790
H          0.82670       -1.75770       -0.08920
H          1.23630       -4.63860        0.90510
H         -0.22400       -3.62750        4.12030
H          1.44710       -3.75640        3.52120
H         -0.57800       -5.71040        2.35650
H          0.81910       -7.38330        3.48870
H          2.76950       -5.28990        4.09730
H          2.54160       -6.80240        5.00760
H          0.71390       -5.76580        6.27230
H          2.22520       -4.84160        6.44610
H          0.94190       -4.25330        5.36200
H         -1.41640        0.19080       -2.23220
H          1.32100        1.42290       -2.74610
H         -0.25300        2.25400       -2.74610
H          1.19760        1.32350       -0.18320
H          0.24710        3.42470        0.66170
H         -0.28300        4.96870       -1.32030
H         -0.83520        3.54100       -2.22860
H         -2.59370        3.16090       -0.56200
H         -2.04150        4.58860        0.34630
H         -3.03700        4.57530       -2.51570
H         -3.95040        5.13340       -1.09360
H         -1.05580        7.22580       -2.75540
