52
15(S)-HEPE
C         -1.61400       -1.46750       -2.67920
C         -0.11400       -1.46750       -2.67920
C          0.38600       -2.88170       -2.67920
C          0.61670       -3.53420       -1.53110
C          0.38320       -2.87390       -0.20460
C          0.61390       -3.52640        0.94350
C          0.38040       -2.86610        2.27000
O         -0.07470       -1.57880        2.06920
C         -0.64360       -3.64370        3.04230
C         -0.87710       -2.98340        4.36870
C         -1.81920       -2.04110        4.51650
C         -2.67400       -1.61270        3.36070
C         -4.01630       -1.17450        3.86700
C         -2.30610       -0.31930       -2.67920
C         -1.60570        1.00710       -2.67920
C         -1.37230        1.44930       -1.26500
C         -0.31920        2.21420       -0.94390
C          0.66400        2.65580       -1.98710
C          0.69260        4.15440       -2.04480
C          1.10320        4.69850       -0.70860
C          2.46850        4.18550       -0.35800
O          2.91900        3.97140        0.76170
O          3.17670        3.97830       -1.49720
H          1.31440       -2.83780        2.83120
H         -2.11850       -2.42270       -2.67920
H          0.24930       -0.95360       -3.56920
H          0.24930       -0.95360       -1.78920
H          0.55410       -3.35720       -3.63450
H          0.97680       -4.55270       -1.53110
H          0.02310       -1.85540       -0.20460
H          0.97400       -4.54490        0.94350
H         -0.28420       -4.66040        3.20080
H         -1.57760       -3.67190        2.48110
H         -0.26140       -3.29180        5.20110
H         -1.98730       -1.56550        5.47180
H         -2.80050       -2.44880        2.67290
H         -2.19350       -0.78400        2.84090
H         -3.88990       -0.33850        4.55490
H         -4.63750       -0.86330        3.02720
H         -4.49680       -2.00330        4.38690
H         -3.38640       -0.31930       -2.67920
H         -0.64910        0.91290       -3.19300
H         -2.22310        1.74400       -3.19300
H         -2.08030        1.13120       -0.51360
H         -0.15100        2.53260        0.07460
H          1.65610        2.28300       -1.73240
H          0.36560        2.26050       -2.95810
H          1.40700        4.47530       -2.80290
H         -0.29950        4.52720       -2.29960
H          1.12400        5.78750       -0.75050
H          0.38880        4.37760        0.04950
H          4.03220        3.65620       -1.26340
