52
15(S)-HEPE
C         -2.77020       -3.34800        0.54920
C         -1.27020       -3.34800        0.54920
C         -0.77020       -2.64090       -0.67550
C          0.39800       -1.98320       -0.66660
C          1.24750       -1.93040        0.56850
C          2.41570       -1.27270        0.57750
C          3.26530       -1.22000        1.81260
O          4.13910       -2.28800        1.81580
C          4.04310        0.06250        1.83010
C          4.92110        0.13130        0.61590
C          5.72010        1.18560        0.39840
C          5.76510        2.33480        1.36130
C          7.15910        2.48650        1.89400
C         -3.46230       -2.19980        0.54920
C         -2.76190       -0.87340        0.54920
C         -2.52840       -0.43130       -0.86500
C         -3.43600        0.30890       -1.51750
C         -4.71800        0.72180       -0.85720
C         -4.52270        2.03850       -0.16570
C         -4.12130        3.07660       -1.17120
C         -2.83930        2.66370       -1.83150
O         -2.47050        2.92460       -2.97110
O         -2.10280        1.92700       -0.96150
H          2.62720       -1.27000        2.69490
H         -3.27460       -4.30330        0.54920
H         -0.90690       -2.83410        1.43920
H         -0.90690       -4.37560        0.54920
H         -1.38200       -2.67890       -1.56500
H          0.75810       -1.47390       -1.54860
H          0.88740       -2.43970        1.45060
H          2.77580       -0.76350       -0.30460
H          4.66040        0.10080        2.72760
H          3.35280        0.90610        1.82750
H          4.88870       -0.69640       -0.07760
H          6.35250        1.23510       -0.47600
H          5.07940        2.14410        2.18690
H          5.47050        3.25040        0.84840
H          7.84480        2.67720        1.06840
H          7.19180        3.32170        2.59370
H          7.45370        1.57100        2.40690
H         -4.54260       -2.19980        0.54920
H         -3.37930       -0.13650        1.06310
H         -1.80530       -0.96770        1.06310
H         -1.60520       -0.72860       -1.34060
H         -3.26790        0.62730       -2.53600
H         -5.49970        0.81940       -1.61050
H         -5.00970       -0.03260       -0.12650
H         -5.45430        2.33850        0.31420
H         -3.74100        1.94080        0.58770
H         -4.90300        3.17430       -1.92450
H         -3.97940        4.03340       -0.66870
H         -1.30030        1.67380       -1.38820
