52
15(S)-HEPE
C         -2.50520       -2.48660        1.31820
C         -1.00520       -2.48660        1.31820
C         -0.50520       -3.71130        0.61110
C          0.66300       -3.70240       -0.04660
C          1.51250       -2.46730       -0.09930
C          2.68070       -2.45830       -0.75700
C          3.53030       -1.22320       -0.80980
O          4.40410       -1.22010        0.25830
C          4.30810       -1.20580       -2.09220
C          5.18610       -2.41990       -2.16100
C          5.98510       -2.63740       -3.21530
C          6.03010       -1.67450       -4.36460
C          7.42410       -1.14180       -4.51630
C         -3.19730       -1.33850        1.31820
C         -2.49690       -0.01200        1.31820
C         -2.26340        0.43010        2.73240
C         -2.78230        1.57700        3.19360
C         -3.61510        2.45990        2.31220
C         -3.45400        3.88850        2.74010
C         -4.28690        4.77140        1.85860
C         -3.83880        4.62230        0.43490
O         -2.97910        5.27360       -0.14760
O         -4.54280        3.62320       -0.15530
H          2.89220       -0.34090       -0.75980
H         -3.00960       -3.44190        1.31820
H         -0.64190       -1.59660        0.80440
H         -0.64190       -2.48660        2.34590
H         -1.11700       -4.60080        0.64910
H          1.02310       -4.58440       -0.55580
H          1.15240       -1.58520        0.40990
H          3.04080       -3.34040       -1.26630
H          4.92540       -0.30830       -2.13060
H          3.61780       -1.20830       -2.93580
H          5.15380       -3.11340       -1.33340
H          6.61750       -3.51190       -3.26490
H          5.34450       -0.84890       -4.17390
H          5.73550       -2.18740       -5.28010
H          8.10980       -1.96740       -4.70700
H          7.45680       -0.44210       -5.35140
H          7.71870       -0.62890       -3.60080
H         -4.27760       -1.33850        1.31820
H         -1.54030       -0.10630        0.80440
H         -3.11430        0.72480        0.80440
H         -1.66360       -0.20570        3.36720
H         -2.61410        1.89550        4.21210
H         -3.28950        2.35150        1.27760
H         -4.66300        2.17170        2.39540
H         -3.77960        3.99690        3.77460
H         -2.40610        4.17680        2.65690
H         -5.33480        4.48320        1.94180
H         -4.16980        5.80950        2.16950
H         -4.25200        3.53960       -1.04900
