52
15(S)-HEPE
C         -1.69620       -1.68030       -1.16820
C         -0.19620       -1.68030       -1.16820
C          0.30380       -2.90510       -1.87530
C          0.53450       -4.04420       -1.20720
C          0.30110       -4.13560        0.27170
C          0.53180       -5.27480        0.93970
C          0.29830       -5.36610        2.41860
O          1.48080       -5.69040        3.05180
C         -0.19640       -4.04530        2.92920
C         -0.42980       -4.13660        4.40810
C         -0.28940       -3.06300        5.19860
C          0.10630       -1.73130        4.63290
C         -0.48840       -0.63660        5.46840
C         -2.38830       -0.53220       -1.16820
C         -1.68790        0.79430       -1.16820
C         -2.53740        1.80830       -1.87530
C         -2.13090        3.07860       -2.01020
C         -0.81170        3.53220       -1.45900
C         -0.27490        4.65020       -2.30280
C          1.04430        5.10380       -1.75160
C          1.58100        6.22180       -2.59540
O          1.05810        7.30920       -2.81170
O          2.78050        5.85640       -3.11500
H         -0.44590       -6.13610        2.62210
H         -2.20060       -2.63560       -1.16820
H          0.16720       -0.79030       -1.68200
H          0.16720       -1.68030       -0.14050
H          0.47200       -2.83930       -2.94040
H          0.89460       -4.92630       -1.71650
H         -0.05900       -3.25350        0.78090
H          0.89190       -6.15680        0.43050
H         -1.13040       -3.78910        2.42910
H          0.54780       -3.27530        2.72580
H         -0.71480       -5.09570        4.81550
H         -0.45760       -3.12880        6.26370
H         -0.26050       -1.64760        3.60990
H          1.19270       -1.64280        4.63780
H         -0.12160       -0.72020        6.49140
H         -0.20080        0.33110        5.05730
H         -1.57470       -0.72510        5.46350
H         -3.46860       -0.53220       -1.16820
H         -1.51820        1.11560       -0.14050
H         -0.73120        0.70000       -1.68200
H         -3.48750        1.48160       -2.27230
H         -2.74280        3.80890       -2.51950
H         -0.94650        3.88200       -0.43550
H         -0.10820        2.69970       -1.46870
H         -0.14010        4.30040       -3.32630
H         -0.97840        5.48280       -2.29310
H          0.90950        5.45360       -0.72810
H          1.74770        4.27120       -1.76130
H          3.10700        6.56710       -3.64290
