52
15(S)-HEPE
C         -2.95480       -2.28150       -0.67160
C         -1.45480       -2.28150       -0.67160
C         -0.95480       -1.57440       -1.89630
C          0.35830       -1.43950       -2.13000
C          1.37550       -1.99070       -1.17520
C          2.68860       -1.85580       -1.40890
C          3.70580       -2.40710       -0.45410
O          4.01770       -3.70290       -0.81190
C          4.94500       -1.56320       -0.50150
C          5.96210       -2.11440        0.45330
C          6.43140       -1.37450        1.46790
C          5.95650        0.03160        1.68530
C          4.75870        0.02090        2.58820
C         -3.64700       -1.13330       -0.67160
C         -2.94660        0.19310       -0.67160
C         -3.96370        1.29560       -0.67160
C         -4.43300        1.80430        0.47650
C         -3.95810        1.28950        1.80300
C         -3.32360        2.40790        2.57530
C         -2.15770        2.95040        1.80300
C         -2.63260        3.46520        0.47650
O         -3.45220        4.35360        0.27230
O         -2.00690        2.78690       -0.51870
H          3.29800       -2.39730        0.55670
H         -3.45930       -3.23680       -0.67160
H         -1.09150       -1.76770        0.21840
H         -1.09150       -3.30920       -0.67160
H         -1.68740       -1.17740       -2.58400
H          0.71840       -0.93020       -3.01210
H          1.01540       -2.50000       -0.29320
H          3.04870       -1.34660       -2.29100
H          4.69860       -0.53970       -0.21890
H          5.35270       -1.57290       -1.51230
H          6.30410       -3.12710        0.29670
H          7.16390       -1.77150        2.15550
H          5.68540        0.47580        0.72750
H          6.75270        0.61710        2.14490
H          5.02970       -0.42330        3.54600
H          4.41360        1.04270        2.74620
H          3.96240       -0.56460        2.12860
H         -4.72720       -1.13330       -0.67160
H         -2.32250        0.27450        0.21840
H         -2.32250        0.27450       -1.56160
H         -4.30570        1.66630       -1.62690
H         -5.16550        2.59830        0.47650
H         -4.80520        0.89530        2.36420
H         -3.22680        0.49690        1.64440
H         -4.05480        3.20060        2.73390
H         -2.97840        2.03390        3.53920
H         -1.69660        3.76320        2.36420
H         -1.42650        2.15780        1.64440
H         -2.31380        3.11960       -1.34660
