58
PGE1
C         -1.15690        0.72680       -1.44560
C          0.34310        0.72680       -1.44560
C          1.03520        0.72680       -2.59370
C          2.53520        0.72680       -2.59370
O          2.99520        0.07630       -3.72050
C          3.03520        2.14100       -2.59370
C          2.53520        2.84810       -3.81840
C          3.03520        4.26230       -3.81840
C          2.53520        4.96940       -2.59370
C          3.03520        6.38370       -2.59370
C         -1.68500       -0.03650       -2.64990
O         -2.98620        0.33530       -2.92010
C         -1.63200       -1.50860       -2.22930
C         -1.81040       -1.49250       -0.71210
O         -2.01820       -2.47330        0.00070
C         -1.68580       -0.04690       -0.23390
C         -0.78230        0.06070        0.95870
C         -1.36510       -0.71950        2.09950
C         -0.46160       -0.61190        3.29210
C         -1.04440       -1.39210        4.43290
C         -0.14090       -1.28450        5.62550
C         -0.72360       -2.06470        6.76630
C         -0.85870       -3.50500        6.36970
O         -1.32010       -4.34510        7.15650
O         -0.49390       -3.82830        5.22960
H         -1.47760        1.77050       -1.44560
H          2.89860        0.21300       -1.70370
H         -1.10150        0.16030       -3.55140
H         -2.67640        0.30380        0.05510
H          0.84760        0.72680       -0.49030
H          0.53080        0.72680       -3.54900
H          2.70890       -0.87820       -3.80390
H          2.67190        2.65490       -1.70370
H          4.12520        2.14100       -2.59370
H          2.89860        2.33430       -4.70840
H          1.44520        2.84810       -3.81840
H          2.67190        4.77620       -4.70840
H          4.12520        4.26230       -3.81840
H          1.44520        4.96940       -2.59370
H          2.89860        4.45560       -1.70370
H          4.12520        6.38370       -2.59370
H          2.67190        6.89750       -1.70370
H          2.67190        6.89750       -3.48370
H         -3.62890        0.20320       -2.16540
H         -2.39940       -2.11110       -2.71470
H         -0.66000       -1.94730       -2.45430
H         -0.68420        1.10730        1.24690
H          0.19960       -0.34070        0.70800
H         -2.34700       -0.31810        2.35020
H         -1.46330       -1.76610        1.81140
H          0.52030       -1.01330        3.04140
H         -0.36340        0.43470        3.58020
H         -2.02630       -0.99070        4.68360
H         -1.14250       -2.43870        4.14480
H         -0.04270       -0.23790        5.91360
H          0.84100       -1.68590        5.37480
H         -1.70550       -1.66330        7.01700
H         -0.06710       -1.98650        7.63290
