58
PGE1
C         -1.03970        1.33380       -0.91680
C          0.46030        1.33380       -0.91680
C          1.15240        1.90790        0.07760
C          2.65240        1.90790        0.07760
O          3.11240        0.78110       -0.57300
C          3.15240        3.13260       -0.62960
C          4.65240        3.13260       -0.62960
C          5.15240        4.35740       -1.33670
C          6.65240        4.35740       -1.33670
C          7.15240        4.35740        0.07760
C         -1.61430        0.60480       -2.12110
O         -1.59310        1.38290       -3.26060
C         -3.03700        0.22310       -1.70050
C         -2.96920        0.05730       -0.18340
O         -3.84570       -0.42940        0.52950
C         -1.62400        0.60090        0.29490
C         -0.76210       -0.56050        0.69260
C         -1.36770       -1.24930        1.87950
C         -0.50590       -2.41080        2.27720
C         -1.11150       -3.09950        3.46420
C         -2.48310       -3.59290        3.10990
C         -2.38710       -4.55890        1.96640
C         -3.75860       -5.05220        1.61220
O         -3.92870       -6.18520        1.13760
O         -4.71680       -4.29030        1.80930
H         -1.36070        2.37850       -0.91680
H          3.01570        1.90790        1.10520
H         -1.03010       -0.29380       -2.33510
H         -1.74200        1.25130        1.16130
H          0.96470        0.85620       -1.74410
H          0.64800        2.38550        0.90490
H          3.68050        0.95930       -1.37640
H          2.78910        3.13260       -1.65720
H          2.78910        4.02260       -0.11570
H          5.01570        3.13260        0.39810
H          5.01570        2.24270       -1.14340
H          4.78910        5.24740       -0.82280
H          4.78910        4.35740       -2.36430
H          7.01570        3.46740       -1.85050
H          7.01570        5.24740       -1.85050
H          6.78910        5.24740        0.59140
H          8.24240        4.35740        0.07760
H          6.78910        3.46740        0.59140
H         -1.07560        0.99870       -4.02520
H         -3.74180        1.02330       -1.92560
H         -3.38750       -0.68740       -2.18590
H          0.23460       -0.20210        0.95000
H         -0.69230       -1.26250       -0.13830
H         -1.43750       -0.54730        2.71050
H         -2.36440       -1.60780        1.62210
H         -0.43610       -3.11280        1.44630
H          0.49080       -2.05230        2.53460
H         -0.48520       -3.94350        3.75310
H         -1.18130       -2.39760        4.29510
H         -3.10940       -2.74890        2.82090
H         -2.92320       -4.09340        3.97240
H         -1.76080       -5.40290        2.25540
H         -1.94700       -4.05840        1.10390
