58
PGE1
C         -0.79750        1.37010       -1.05110
C          0.70250        1.37010       -1.05110
C          1.39460        1.94420       -2.04540
C          2.89460        1.94420       -2.04550
O          3.35460        2.59480       -0.91870
C          3.39460        0.53000       -2.04550
C          2.89460       -0.17710       -3.27020
C          3.39460        0.53000       -4.49490
C          2.89460       -0.17710       -5.71970
C          1.39460       -0.17710       -5.71970
C         -1.37210        0.64110       -2.25540
O         -1.35090        1.41920       -3.39490
C         -2.79480        0.25940       -1.83490
C         -2.72700        0.09360       -0.31770
O         -3.60350       -0.39310        0.39510
C         -1.38180        0.63720        0.16060
C         -0.51990       -0.52420        0.55830
C         -1.12550       -1.21300        1.74520
C         -0.26360       -2.37450        2.14290
C         -0.86930       -3.06320        3.32980
C         -0.96530       -2.09720        4.47330
C         -1.57090       -2.78600        5.66020
C         -1.66690       -1.81990        6.80370
O         -2.76190       -1.53630        7.31190
O         -0.61570       -1.31420        7.22420
H         -1.11850        2.41480       -1.05110
H          3.25790        2.45800       -2.93540
H         -0.78790       -0.25750       -2.46940
H         -1.49980        1.28760        1.02690
H          1.20690        0.89250       -0.22380
H          0.89020        2.42190       -2.87280
H          3.92270        2.03870       -0.31200
H          4.48460        0.53000       -2.04550
H          3.03130        0.01620       -1.15550
H          3.25790       -1.20480       -3.27020
H          1.80460       -0.17710       -3.27020
H          4.48460        0.53000       -4.49490
H          3.03130        1.55770       -4.49490
H          3.25790        0.33670       -6.60970
H          3.25790       -1.20480       -5.71970
H          1.03130       -0.69090       -4.82970
H          1.03130       -0.69090       -6.60970
H          1.03130        0.85060       -5.71970
H         -1.85550        2.28000       -3.32830
H         -3.49960        1.05960       -2.05990
H         -3.14520       -0.65110       -2.32020
H          0.47680       -0.16570        0.81570
H         -0.45010       -1.22620       -0.27270
H         -1.19530       -0.51100        2.57610
H         -2.12220       -1.57150        1.48780
H         -0.19390       -3.07640        1.31190
H          0.73300       -2.01600        2.40030
H         -1.86600       -3.42170        3.07240
H         -0.24300       -3.90720        3.61880
H         -1.59160       -1.25320        4.18430
H          0.03140       -1.73870        4.73070
H         -0.94460       -3.63000        5.94920
H         -2.56760       -3.14440        5.40280
