58
PGE1
C         -1.25920        1.35660       -1.42700
C          0.24080        1.35660       -1.42700
C          0.93290        1.35660       -2.57520
C          2.43290        1.35660       -2.57520
O          2.89290        0.22980       -3.22570
C          2.93290        2.58130       -3.28230
C          4.43290        2.58130       -3.28230
C          4.93290        2.58130       -1.86810
C          4.43290        3.80610       -1.16090
C          4.93290        3.80610        0.25330
C         -1.78730        0.59330       -2.63130
O         -3.08850        0.96510       -2.90150
C         -1.73430       -0.87880       -2.21080
C         -1.91270       -0.86270       -0.69360
O         -2.12050       -1.84350        0.01920
C         -1.78810        0.58290       -0.21530
C         -0.88460        0.69050        0.97720
C         -1.46740       -0.08970        2.11810
C         -0.56390        0.01790        3.31060
C         -1.14670       -0.76230        4.45150
C         -1.28170       -2.20260        4.05490
C         -1.86450       -2.98290        5.19580
C         -1.99960       -4.42320        4.79920
O         -1.07970       -5.23070        4.99740
O         -3.06100       -4.78000        4.26670
H         -1.57990        2.40030       -1.42700
H          2.79630        1.35660       -1.54750
H         -1.20380        0.79010       -3.53290
H         -2.77870        0.93360        0.07360
H          0.74520        1.35660       -0.47170
H          0.42850        1.35660       -3.53040
H          2.60660       -0.63850       -2.82070
H          2.56960        2.58130       -4.30990
H          2.56960        3.47130       -2.76840
H          4.79630        1.69140       -3.79610
H          4.79630        3.47130       -3.79610
H          6.02290        2.58130       -1.86810
H          4.56960        1.69140       -1.35420
H          4.79630        4.69610       -1.67480
H          3.34290        3.80610       -1.16090
H          4.56960        2.91610        0.76710
H          4.56960        4.69610        0.76710
H          6.02290        3.80610        0.25330
H         -3.73120        0.83300       -2.14690
H         -2.50170       -1.48130       -2.69610
H         -0.76230       -1.31750       -2.43580
H         -0.78650        1.73710        1.26540
H          0.09730        0.28900        0.72650
H         -2.44930        0.31170        2.36880
H         -1.56560       -1.13640        1.82990
H          0.41800       -0.38350        3.05990
H         -0.46580        1.06450        3.59880
H         -0.49010       -0.68410        5.31800
H         -2.12860       -0.36090        4.70220
H         -0.29980       -2.60410        3.80420
H         -1.93830       -2.28080        3.18830
H         -2.84640       -2.58140        5.44650
H         -1.20800       -2.90460        6.06230
