58
PGE1
C         -1.16220        0.39620       -1.81510
C          0.33780        0.39620       -1.81510
C          1.02990        1.39060       -2.38910
C          2.52990        1.39060       -2.38910
O          2.98990        1.39060       -3.69020
C          3.02990        2.61530       -1.68200
C          2.52990        2.61530       -0.26780
C          3.02990        3.84010        0.43930
C          2.52990        3.84010        1.85350
C          3.02990        2.61530        2.56060
C         -1.73680       -0.33280       -3.01940
O         -1.71560        0.44530       -4.15890
C         -3.15950       -0.71450       -2.59880
C         -3.09170       -0.88030       -1.08160
O         -3.96820       -1.36700       -0.36880
C         -1.74640       -0.33670       -0.60340
C         -0.88460       -1.49810       -0.20570
C         -1.49020       -2.18690        0.98130
C         -0.62830       -3.34840        1.37890
C         -1.23400       -4.03710        2.56590
C         -1.33000       -3.07110        3.70930
C          0.04160       -2.57780        4.06360
C         -0.05440       -1.61170        5.20710
O          0.76180       -0.68690        5.33410
O         -0.97660       -1.76800        6.02120
H         -1.48320        1.44100       -1.81510
H          2.89330        0.50060       -1.87530
H         -1.15260       -1.23140       -3.23340
H         -1.86450        0.31370        0.26300
H          0.84220       -0.43110       -1.33740
H          0.52550        2.21790       -2.86680
H          3.55800        2.17550       -3.93760
H          4.11990        2.61530       -1.68200
H          2.66660        3.50530       -2.19590
H          1.43990        2.61530       -0.26780
H          2.89330        1.72530        0.24600
H          2.66660        4.73000       -0.07450
H          4.11990        3.84010        0.43930
H          2.89330        4.73000        2.36730
H          1.43990        3.84010        1.85350
H          2.66660        1.72530        2.04680
H          2.66660        2.61530        3.58830
H          4.11990        2.61530        2.56060
H         -2.22010        1.30610       -4.09220
H         -3.86430        0.08580       -2.82380
H         -3.50990       -1.62500       -3.08420
H          0.11210       -1.13960        0.05170
H         -0.81480       -2.20010       -1.03660
H         -1.56000       -1.48490        1.81220
H         -2.48690       -2.54540        0.72380
H         -0.55860       -4.05030        0.54800
H          0.36830       -2.98990        1.63640
H         -2.23060       -4.39560        2.30840
H         -0.60770       -4.88110        2.85480
H         -1.77010       -3.57160        4.57180
H         -1.95630       -2.22710        3.42040
H          0.48170       -2.07730        3.20110
H          0.66790       -3.42180        4.35260
