58
PGE1
C         -2.06980        0.71680       -1.11470
C         -0.56980        0.71680       -1.11470
C          0.12230        1.71120       -0.54070
C          1.62230        1.71120       -0.54070
O          2.08230        0.58440        0.10990
C          2.12230        1.71120       -1.95490
C          1.62230        2.93590       -2.66200
C          2.12230        2.93590       -4.07620
C          3.62230        2.93590       -4.07620
C          4.12230        4.16070       -3.36910
C         -2.59790       -0.04650       -2.31900
O         -3.89910        0.32530       -2.58930
C         -2.54490       -1.51860       -1.89850
C         -2.72330       -1.50250       -0.38130
O         -2.93110       -2.48330        0.33150
C         -2.59880       -0.05690        0.09700
C         -1.69520        0.05070        1.28950
C         -2.27800       -0.72950        2.43040
C         -1.37450       -0.62190        3.62290
C         -0.02330       -1.17430        3.27790
C          0.88020       -1.06670        4.47040
C          2.23140       -1.61910        4.12540
C          2.09640       -3.05940        3.72880
O          2.68340       -3.95380        4.35580
O          1.37860       -3.32660        2.75360
H         -2.39050        1.76050       -1.11470
H          1.98570        2.60120       -0.02680
H         -2.01440        0.15030       -3.22060
H         -3.58930        0.29380        0.38590
H         -0.06540       -0.11050       -1.59240
H         -0.38210        2.53850       -0.06300
H          2.65040       -0.02230       -0.44620
H          3.21230        1.71120       -1.95490
H          1.75900        0.82120       -2.46870
H          0.53230        2.93590       -2.66200
H          1.98570        3.82590       -2.14820
H          1.75900        3.82590       -4.59000
H          1.75900        2.04590       -4.59000
H          3.98570        2.04590       -3.56240
H          3.98570        2.93590       -5.10390
H          3.75900        5.05060       -3.88290
H          5.21230        4.16070       -3.36910
H          3.75900        4.16070       -2.34140
H         -4.05350        0.68510       -3.50940
H         -3.31230       -2.12100       -2.38380
H         -1.57290       -1.95730       -2.12350
H         -1.59710        1.09740        1.57770
H         -0.71340       -0.35070        1.03880
H         -3.25990       -0.32800        2.68100
H         -2.37620       -1.77610        2.14220
H         -1.27640        0.42480        3.91110
H         -1.79800       -1.18880        4.45190
H         -0.12140       -2.22090        2.98970
H          0.40020       -0.60730        2.44880
H          0.45670       -1.63360        5.29940
H          0.97840       -0.02000        4.75860
H          2.88800       -1.54090        4.99200
H          2.65490       -1.05210        3.29640
