58
PGE1
C         -0.58710        0.38160       -1.92230
C          0.91290        0.38160       -1.92230
C          1.60500        1.37590       -1.34820
C          3.10500        1.37590       -1.34820
O          3.56500        2.02640       -2.47500
C          3.60500        2.08300       -0.12350
C          3.10500        3.49720       -0.12350
C          3.60500        4.20430        1.10130
C          3.10500        5.61850        1.10130
C          3.60500        6.32560       -0.12350
C         -1.16160       -0.34750       -3.12660
O         -1.14050        0.43060       -4.26610
C         -2.58440       -0.72910       -2.70610
C         -2.51660       -0.89490       -1.18890
O         -3.39310       -1.38170       -0.47610
C         -1.17130       -0.35130       -0.71060
C         -0.30950       -1.51280       -0.31290
C         -0.91510       -2.20160        0.87400
C         -1.01110       -1.23550        2.01750
C         -1.61670       -1.92430        3.20440
C         -0.75490       -3.08580        3.60210
C         -1.36050       -3.77450        4.78900
C         -2.73210       -4.26790        4.43480
O         -2.90210       -5.40080        3.96030
O         -3.69030       -3.50590        4.63190
H         -0.90810        1.42630       -1.92230
H          3.46840        0.34820       -1.34820
H         -0.57750       -1.24610       -3.34060
H         -1.28940        0.29910        0.15570
H          1.41730       -0.44570       -2.39990
H          1.10060        2.20320       -0.87060
H          3.27870        1.62150       -3.34330
H          3.24170        1.56920        0.76650
H          4.69500        2.08300       -0.12350
H          3.46840        4.01100       -1.01350
H          2.01500        3.49720       -0.12350
H          4.69500        4.20430        1.10130
H          3.24170        3.69050        1.99120
H          2.01500        5.61850        1.10130
H          3.46840        6.13240        1.99120
H          4.69500        6.32560       -0.12350
H          3.24170        7.35330       -0.12350
H          3.24170        5.81180       -1.01350
H         -1.64500        1.29140       -4.19950
H         -3.28920        0.07110       -2.93110
H         -2.93480       -1.63970       -3.19140
H          0.68720       -1.15430       -0.05550
H         -0.23970       -2.21480       -1.14380
H         -1.91180       -2.56000        0.61660
H         -0.28880       -3.04560        1.16300
H         -0.01440       -0.87700        2.27490
H         -1.63740       -0.39150        1.72850
H         -1.68650       -1.22230        4.03540
H         -2.61340       -2.28280        2.94700
H          0.24180       -2.72730        3.85950
H         -0.68510       -3.78770        2.77120
H         -1.43030       -3.07250        5.62000
H         -0.73420       -4.61850        5.07800
