58
PGE1
C         -2.21820        1.02100       -0.82740
C         -0.71820        1.02100       -0.82740
C         -0.02610        2.01540       -1.40150
C          1.47390        2.01540       -1.40150
O          1.93390        1.36480       -0.27470
C          1.97390        1.30820       -2.62620
C          3.47390        1.30820       -2.62620
C          3.97390        0.60110       -3.85100
C          3.47390        1.30820       -5.07570
C          3.97390        2.72250       -5.07570
C         -2.74640        0.25770       -2.03170
O         -4.04760        0.62950       -2.30190
C         -2.69330       -1.21440       -1.61120
C         -2.87170       -1.19830       -0.09400
O         -3.07960       -2.17910        0.61890
C         -2.74720        0.24730        0.38430
C         -1.84370        0.35490        1.57680
C         -2.42650       -0.42530        2.71770
C         -1.52290       -0.31770        3.91020
C         -0.17170       -0.87010        3.56520
C          0.73180       -0.76250        4.75780
C          2.08300       -1.31490        4.41280
C          1.94790       -2.75520        4.01620
O          2.29410       -3.14460        2.89090
O          1.47890       -3.54390        4.85020
H         -2.53890        2.06470       -0.82740
H          1.83720        3.04300       -1.40150
H         -2.16280        0.45450       -2.93320
H         -3.73780        0.59800        0.67320
H         -0.21380        0.19370       -0.34980
H         -0.53050        2.84270       -1.87910
H          2.50200        0.56140       -0.45290
H          1.61060        0.28060       -2.62620
H          1.61060        1.82210       -3.51620
H          3.83720        2.33590       -2.62620
H          3.83720        0.79440       -1.73620
H          3.61060       -0.42650       -3.85100
H          5.06390        0.60110       -3.85100
H          3.83720        0.79440       -5.96570
H          2.38390        1.30820       -5.07570
H          3.61060        3.23630       -4.18570
H          3.61060        3.23630       -5.96570
H          5.06390        2.72250       -5.07570
H         -4.20190        0.98930       -3.22210
H         -3.46080       -1.81680       -2.09650
H         -1.72140       -1.65310       -1.83620
H         -1.74550        1.40150        1.86500
H         -0.86180       -0.04650        1.32610
H         -3.40830       -0.02390        2.96840
H         -2.52460       -1.47190        2.42950
H         -1.42480        0.72890        4.19840
H         -1.94640       -0.88460        4.73930
H         -0.26990       -1.91670        3.27700
H          0.25180       -0.30320        2.73620
H          0.30830       -1.32940        5.58680
H          0.82990        0.28410        5.04590
H          2.73960       -1.23670        5.27930
H          2.50650       -0.74800        3.58370
