58
PGE1
C         -1.28610        2.39670       -0.92230
C          0.21390        2.39670       -0.92230
C          0.90600        2.97080       -1.91660
C          2.40600        2.97080       -1.91660
O          2.86600        4.09760       -1.26600
C          2.90600        1.74610       -1.20950
C          2.40600        0.52130       -1.91660
C          2.90600       -0.70340       -1.20950
C          2.40600       -1.92820       -1.91660
C          2.90600       -3.15290       -1.20950
C         -1.86070        1.66770       -2.12660
O         -1.83950        2.44580       -3.26610
C         -3.28340        1.28600       -1.70600
C         -3.21560        1.12020       -0.18880
O         -4.09210        0.63350        0.52400
C         -1.87030        1.66390        0.28940
C         -1.00850        0.50240        0.68710
C         -1.61410       -0.18640        1.87410
C         -0.75220       -1.34790        2.27170
C         -1.35790       -2.03660        3.45870
C         -0.49600       -3.19810        3.85630
C         -0.40000       -4.16410        2.71290
C          0.46190       -5.32560        3.11050
O          1.50020       -5.59480        2.48850
O          0.10220       -6.00780        4.08160
H         -1.60710        3.44150       -0.92230
H          2.76940        2.97080       -2.94420
H         -1.27650        0.76910       -2.34060
H         -1.98840        2.31420        1.15580
H          0.71830        1.91910       -0.09500
H          0.40160        3.44850       -2.74390
H          3.43410        3.91940       -0.46260
H          3.99600        1.74610       -1.20950
H          2.54270        1.74610       -0.18180
H          1.31600        0.52130       -1.91660
H          2.76940        0.52130       -2.94420
H          2.54270       -0.70340       -0.18180
H          3.99600       -0.70340       -1.20950
H          1.31600       -1.92820       -1.91660
H          2.76940       -1.92820       -2.94420
H          3.99600       -3.15290       -1.20950
H          2.54270       -4.04290       -1.72330
H          2.54270       -3.15290       -0.18180
H         -2.34400        3.30660       -3.19940
H         -3.98820        2.08630       -1.93100
H         -3.63380        0.37550       -2.19140
H         -0.01180        0.86090        0.94460
H         -0.93870       -0.19960       -0.14380
H         -1.68390        0.51560        2.70500
H         -2.61080       -0.54490        1.61660
H         -0.68250       -2.04980        1.44080
H          0.24440       -0.98940        2.52920
H         -1.42760       -1.33460        4.28960
H         -2.35450       -2.39510        3.20120
H         -0.93610       -3.69860        4.71880
H          0.50060       -2.83960        4.11380
H          0.04010       -3.66360        1.85040
H         -1.39670       -4.52260        2.45540
