58
PGE1
C         -0.79850       -1.17620       -0.72080
C          0.70150       -1.17620       -0.72080
C          1.39360       -0.18190       -1.29490
C          2.89360       -0.18190       -1.29490
O          3.35360       -0.83240       -0.16810
C          3.39360       -0.88900       -2.51960
C          2.89360       -0.18190       -3.74440
C          3.39360        1.23230       -3.74440
C          2.89360        1.93940       -4.96910
C          3.39360        3.35370       -4.96910
C         -1.32670       -1.93950       -1.92510
O         -2.62790       -1.56770       -2.19530
C         -1.27360       -3.41160       -1.50460
C         -1.45200       -3.39550        0.01260
O         -1.65990       -4.37630        0.72540
C         -1.32750       -1.94990        0.49090
C         -0.42400       -1.84230        1.68340
C         -0.28890       -0.40200        2.08000
C         -1.64020        0.15040        2.42500
C         -1.50510        1.59070        2.82160
C         -2.85630        2.14320        3.16650
C         -2.72130        3.58350        3.56310
C         -1.81770        3.69110        4.75560
O         -2.22070        4.17880        5.82210
O         -0.65480        3.27650        4.64030
H         -1.11920       -0.13250       -0.72080
H          3.25690        0.84580       -1.29490
H         -0.74310       -1.74270       -2.82670
H         -2.31810       -1.59920        0.77980
H          1.20590       -2.00350       -0.24320
H          0.88920        0.64540       -1.77250
H          3.06720       -0.42740        0.70020
H          4.48360       -0.88900       -2.51960
H          3.03020       -1.91660       -2.51960
H          3.25690       -0.69570       -4.63440
H          1.80360       -0.18190       -3.74440
H          4.48360        1.23230       -3.74440
H          3.03020        1.74620       -2.85440
H          3.25690        1.42560       -5.85910
H          1.80360        1.93940       -4.96910
H          3.03020        3.86750       -4.07910
H          3.03020        3.86750       -5.85910
H          4.48360        3.35370       -4.96910
H         -2.78220       -1.20790       -3.11550
H         -2.04110       -4.01410       -1.98990
H         -0.30170       -3.85030       -1.72960
H          0.55790       -2.24370        1.43270
H         -0.84750       -2.40930        2.51240
H          0.36760       -0.32380        2.94660
H          0.13450        0.16500        1.25090
H         -2.29670        0.07220        1.55840
H         -2.06360       -0.41650        3.25400
H         -0.84850        1.66900        3.68810
H         -1.08160        2.15770        1.99250
H         -3.27980        1.57620        3.99560
H         -3.51290        2.06500        2.30000
H         -3.70310        3.98490        3.81380
H         -2.29780        4.15050        2.73410
