58
PGF2a
C         -1.27160        2.10210        0.31370
C          0.22840        2.10210        0.31370
C          0.92050        3.09640        0.88780
C          2.42050        3.09640        0.88780
O          2.88050        4.22320        1.53830
C          2.92050        1.87170        1.59490
C          4.42050        1.87170        1.59490
C          4.92050        0.64700        2.30200
C          4.42050        0.64700        3.71620
C          4.92050       -0.57780        4.42330
C         -1.84560        1.36780        1.53660
O         -2.61370        2.23150        2.29050
C         -2.71060        0.22890        0.97890
C         -3.09420        0.66710       -0.43690
O         -3.30400       -0.39280       -1.17170
C         -1.82060        1.36750       -0.91740
C         -0.81120        0.35390       -1.36870
C         -0.51340       -0.59100       -0.24240
C         -0.74160       -1.90650       -0.36390
C         -1.30290       -2.48140       -1.63060
C         -0.17920       -2.85430       -2.55150
C         -0.74050       -3.42920       -3.81810
C         -1.55020       -4.65040       -3.49710
O         -2.74070       -4.83560       -3.72300
O         -0.75530       -5.57060       -2.89410
H         -1.59940        3.14270        0.31370
H          2.78380        3.09640       -0.13990
H         -1.05940        0.97900        2.18360
H         -3.85460        1.44290       -0.32810
H         -2.00950        2.03250       -1.76000
H          0.73280        1.27480       -0.16400
H          0.41610        3.92370        1.36540
H          2.59410        5.09150        1.13330
H          2.55720        0.98170        1.08100
H          2.55720        1.87170        2.62250
H          4.78380        1.87170        0.56720
H          4.78380        2.76170        2.10870
H          4.55720       -0.24300        1.78810
H          6.01050        0.64700        2.30200
H          4.78380        1.53690        4.23000
H          3.33050        0.64700        3.71620
H          4.55720       -1.46780        3.90950
H          6.01050       -0.57780        4.42330
H          4.55720       -0.57780        5.45090
H         -3.37550        2.65630        1.80140
H         -3.58430        0.01770        1.59530
H         -2.11260       -0.68390        0.94180
H          0.10520        0.86220       -1.66840
H         -1.21050       -0.20450       -2.21540
H         -0.10910       -0.17700        0.66980
H         -0.52710       -2.58700        0.44720
H         -1.93910       -1.74070       -2.11500
H         -1.89130       -3.36880       -1.39730
H          0.40920       -1.96680       -2.78470
H          0.45700       -3.59500       -2.06700
H         -1.37670       -2.68850       -4.30260
H          0.07610       -3.70010       -4.48730
H         -1.27570       -6.33280       -2.69760
