58
PGF2a
C         -0.68910        2.08560        0.85890
C          0.81090        2.08560        0.85890
C          1.50300        2.08560        2.00700
C          3.00300        2.08560        2.00700
O          3.46300        1.43500        3.13380
C          3.50300        1.37850        0.78230
C          3.00300       -0.03570        0.78230
C          3.50300       -0.74280       -0.44250
C          5.00300       -0.74280       -0.44250
C          5.50300       -1.44990       -1.66720
C         -1.26310        1.35130        2.08180
O         -2.03120        2.21500        2.83570
C         -2.12810        0.21240        1.52410
C         -2.51170        0.65060        0.10830
O         -2.72150       -0.40930       -0.62650
C         -1.23810        1.35090       -0.37220
C         -0.22870        0.33730       -0.82350
C          0.14640        0.60650       -2.25070
C         -0.05650       -0.31310       -3.20490
C         -0.66610       -1.64460       -2.88010
C         -1.93700       -1.81590       -3.65820
C         -2.54650       -3.14740       -3.33340
C         -2.84620       -3.21530       -1.86520
O         -2.40230       -4.01650       -1.05050
O         -3.71580       -2.22590       -1.53800
H         -1.01690        3.12620        0.85890
H          3.36630        3.11320        2.00700
H         -0.47690        0.96250        2.72880
H         -3.27210        1.42640        0.21710
H         -1.42700        2.01600       -1.21480
H          1.31530        2.08560       -0.09640
H          0.99860        2.08560        2.96230
H          3.17660        1.84000        4.00210
H          4.59300        1.37850        0.78230
H          3.13970        1.89230       -0.10770
H          3.36630       -0.54960        1.67230
H          1.91300       -0.03570        0.78230
H          3.13970       -1.77050       -0.44250
H          3.13970       -0.22900       -1.33240
H          5.36630        0.28480       -0.44250
H          5.36630       -1.25670        0.44750
H          5.13970       -2.47760       -1.66720
H          5.13970       -0.93610       -2.55720
H          6.59300       -1.44990       -1.66720
H         -1.73990        2.31920        3.78670
H         -3.00180        0.00120        2.14050
H         -1.53010       -0.70040        1.48700
H         -0.65610       -0.66210       -0.74250
H          0.65960        0.40460       -0.19550
H          0.58540        1.56540       -2.48470
H          0.21370       -0.11930       -4.23270
H         -0.88390       -1.69400       -1.81320
H          0.03220       -2.43840       -3.14540
H         -2.63530       -1.02220       -3.39290
H         -1.71920       -1.76660       -4.72510
H         -3.47000       -3.27190       -3.89890
H         -1.84820       -3.94120       -3.59880
H         -3.89590       -2.27940       -0.61340
