58
PGF2a
C         -2.00810        0.62280        0.83150
C         -0.50810        0.62280        0.83150
C          0.18400        1.61720        0.25740
C          1.68400        1.61720        0.25740
O          2.14400        0.96660       -0.86940
C          2.18400        3.03140        0.25740
C          1.68400        3.73850        1.48220
C          2.18400        3.03140        2.70690
C          3.68400        3.03140        2.70690
C          4.18400        2.32430        3.93160
C         -2.58210       -0.11140        2.05440
O         -3.35020        0.75220        2.80830
C         -3.44720       -1.25040        1.49670
C         -3.83070       -0.81220        0.08090
O         -4.04060       -1.87210       -0.65390
C         -2.55710       -0.11180       -0.39960
C         -1.54770       -1.12540       -0.85090
C         -2.09730       -1.89380       -2.01610
C         -1.47570       -1.88820       -3.20390
C         -0.20800       -1.11350       -3.41100
C          0.89070       -2.05130       -3.81520
C          1.09920       -3.07200       -2.73600
C          1.47650       -2.38030       -1.45970
O          0.72350       -1.97190       -0.58280
O          2.82690       -2.25830       -1.39710
H         -2.33590        1.66340        0.83150
H          2.04730        1.10330        1.14740
H         -1.79590       -0.50030        2.70140
H         -4.59110       -0.03640        0.18970
H         -2.74600        0.55320       -1.24220
H         -0.00370       -0.20450        1.30910
H         -0.32040        2.44450       -0.22020
H          2.71210        1.52270       -1.47610
H          1.82060        3.54520       -0.63260
H          3.27400        3.03140        0.25740
H          2.04730        4.76610        1.48220
H          0.59400        3.73850        1.48220
H          1.82060        3.54520        3.59690
H          1.82060        2.00370        2.70690
H          4.04730        2.51750        1.81690
H          4.04730        4.05900        2.70690
H          3.82070        2.83810        4.82160
H          3.82070        1.29660        3.93160
H          5.27400        2.32430        3.93160
H         -3.05890        0.85640        3.75930
H         -4.32080       -1.46150        2.11310
H         -2.84910       -2.16320        1.45960
H         -1.33130       -1.81200       -0.03250
H         -0.63130       -0.61700       -1.15060
H         -3.01020       -2.45170       -1.86700
H         -1.87140       -2.44160       -4.04310
H          0.06620       -0.61080       -2.48350
H         -0.35950       -0.37180       -4.19520
H          0.61650       -2.55390       -4.74270
H          1.81190       -1.48830       -3.96570
H          0.17800       -3.63500       -2.58550
H          1.89760       -3.75340       -3.02970
H          3.05100       -1.82230       -0.59080
