58
PGF2a
C         -1.96780        1.54160        1.17580
C         -0.46780        1.54160        1.17580
C          0.22430        0.54730        1.74990
C          1.72430        0.54730        1.74990
O          2.18430        0.54730        0.44880
C          2.22430        1.77200        2.45700
C          1.72430        1.77200        3.87120
C          2.22430        2.99680        4.57830
C          3.72430        2.99680        4.57830
C          4.22430        4.22150        5.28550
C         -2.54760        0.82000        2.39370
O         -2.64890        1.63070        3.50580
C         -3.90200        0.31370        1.90280
C         -3.68420       -0.10280        0.43960
O         -3.20360       -1.31920        0.47490
C         -2.55270        0.82650       -0.05580
C         -1.49210        0.07240       -0.80170
C         -1.38360        0.61100       -2.19750
C         -1.00680       -0.17560       -3.21560
C         -0.68010       -1.62300       -2.99600
C          0.34590       -2.06160       -3.99860
C          0.67270       -3.50910       -3.77900
C          1.69860       -3.94770       -4.78150
O          2.81790       -4.39370       -4.55570
O          1.20370       -3.77880       -6.03400
H         -2.29800        2.58160        1.17580
H          2.08760       -0.34270        2.26370
H         -1.91140       -0.02970        2.66150
H         -4.58940        0.13680       -0.11870
H         -2.94930        1.56570       -0.75660
H          0.03660        2.36890        0.69820
H         -0.28010       -0.28000        2.22760
H          1.89790       -0.23760       -0.10070
H          1.86100        2.66200        1.94320
H          3.31430        1.77200        2.45700
H          0.63430        1.77200        3.87120
H          2.08760        0.88210        4.38510
H          1.86100        3.88680        4.06450
H          1.86100        2.99680        5.60600
H          4.08760        2.10680        5.09220
H          4.08760        2.99680        3.55070
H          3.86100        5.11150        4.77160
H          3.86100        4.22150        6.31310
H          5.31430        4.22150        5.28550
H         -3.21130        2.44840        3.38290
H         -4.61970        1.13360        1.93880
H         -4.29970       -0.49060        2.52060
H         -1.75630       -0.98440       -0.83970
H         -0.53600        0.18980       -0.29160
H         -1.61890        1.65340       -2.35560
H         -0.92860        0.21230       -4.22080
H         -1.58330       -2.22150       -3.11490
H         -0.28490       -1.75760       -1.98910
H         -0.04920       -1.92700       -5.00550
H          1.24910       -1.46320       -3.87970
H          1.06780       -3.64370       -2.77210
H         -0.23060       -4.10750       -3.89790
H          1.85750       -4.05790       -6.65440
