58
PGF2a
C         -1.37100        1.99540        1.72460
C          0.12900        1.99540        1.72460
C          0.82110        2.56950        0.73020
C          2.32110        2.56950        0.73020
O          2.78110        2.56950        2.03130
C          2.82110        1.34480        0.02310
C          4.32110        1.34480        0.02310
C          4.82110        0.12000       -0.68400
C          4.32110        0.12000       -2.09820
C          4.82110        1.34480       -2.80530
C         -1.94500        1.26120        2.94750
O         -2.71310        2.12480        3.70140
C         -2.81000        0.12220        2.38970
C         -3.19360        0.56040        0.97400
O         -3.40340       -0.49950        0.23920
C         -1.92000        1.26080        0.49350
C         -0.91060        0.24720        0.04210
C         -0.53550        0.51630       -1.38500
C         -0.73840       -0.40330       -2.33920
C         -1.34800       -1.73480       -2.01440
C         -0.48350       -2.45120       -1.01970
C         -1.09310       -3.78270       -0.69480
C         -1.19980       -4.60240       -1.94650
O         -2.03840       -5.45740       -2.20780
O         -0.19800       -4.25870       -2.79530
H         -1.69880        3.03600        1.72460
H          2.68440        3.45950        0.21640
H         -1.15880        0.87230        3.59440
H         -3.95400        1.33620        1.08280
H         -2.10890        1.92580       -0.34920
H          0.63340        1.51780        2.55190
H          0.31670        3.04710       -0.09710
H          2.49470        3.35440        2.58080
H          2.45780        1.34480       -1.00450
H          2.45780        0.45480        0.53700
H          4.68440        2.23470       -0.49070
H          4.68440        1.34480        1.05080
H          5.91110        0.12000       -0.68400
H          4.45780       -0.77000       -0.17010
H          4.68440       -0.77000       -2.61200
H          3.23110        0.12000       -2.09820
H          4.45780        2.23470       -2.29150
H          5.91110        1.34480       -2.80530
H          4.45780        1.34480       -3.83300
H         -3.47490        2.54960        3.21230
H         -3.68370       -0.08900        3.00620
H         -2.21200       -0.79060        2.35270
H         -1.33800       -0.75220        0.12320
H         -0.02230        0.31450        0.67020
H         -0.09650        1.47520       -1.61900
H         -0.46820       -0.20950       -3.36710
H         -1.42550       -2.33050       -2.92390
H         -2.34160       -1.58610       -1.59160
H          0.51010       -2.59990       -1.44240
H         -0.40600       -1.85550       -0.11010
H         -0.46490       -4.30320        0.02800
H         -2.08670       -3.63400       -0.27210
H         -0.27620       -4.78060       -3.57750
