58
PGF2a
C         -1.07210        1.47170        1.13630
C          0.42790        1.47170        1.13630
C          1.12000        2.61990        1.13630
C          2.62000        2.61990        1.13630
O          3.08000        1.49310        0.48570
C          3.12000        3.84460        0.42920
C          2.62000        3.84460       -0.98510
C          3.12000        5.06940       -1.69220
C          2.62000        6.29410       -0.98510
C          3.12000        7.51880       -1.69220
C         -1.64600        0.73740        2.35920
O         -2.41420        1.60110        3.11310
C         -2.51110       -0.40150        1.80150
C         -2.89460        0.03670        0.38570
O         -3.10450       -1.02320       -0.34910
C         -1.62110        0.73710       -0.09480
C         -0.61170       -0.27650       -0.54620
C         -1.16120       -1.04490       -1.71130
C         -0.80210       -2.31740       -1.93260
C          0.16240       -3.01920       -1.02300
C         -0.59410       -3.69660        0.08100
C         -1.54610       -4.69640       -0.50550
C         -0.77720       -5.72060       -1.28640
O         -0.47800       -5.68120       -2.47450
O         -0.43820       -6.74850       -0.46740
H         -1.39980        2.51230        1.13630
H          2.98340        2.61990        2.16390
H         -0.85990        0.34860        3.00620
H         -3.65510        0.81250        0.49450
H         -1.80990        1.40210       -0.93750
H          0.93230        0.51640        1.13630
H          0.61560        3.57520        1.13630
H          2.79370        0.62480        0.89070
H          4.21000        3.84460        0.42920
H          2.75670        4.73460        0.94300
H          2.98330        2.95460       -1.49890
H          1.53000        3.84460       -0.98510
H          4.21000        5.06940       -1.69220
H          2.75670        5.06940       -2.71980
H          1.53000        6.29410       -0.98500
H          2.98330        6.29410        0.04260
H          4.21000        7.51880       -1.69220
H          2.75670        7.51880       -2.71980
H          2.75670        8.40880       -1.17830
H         -3.17590        2.02590        2.62400
H         -3.38480       -0.61270        2.41790
H         -1.91310       -1.31430        1.76440
H         -0.39530       -0.96310        0.27230
H          0.30470        0.23180       -0.84590
H         -1.85580       -0.53950       -2.36640
H         -1.19780       -2.87080       -2.77170
H          0.85420       -2.29260       -0.59680
H          0.72110       -3.76340       -1.59050
H          0.10680       -4.20660        0.74200
H         -1.15280       -2.95240        0.64850
H         -2.09580       -5.18870        0.29680
H         -2.24700       -4.18650       -1.16640
H          0.04420       -7.38490       -0.96990
