58
PGF2a
C         -1.33330        2.21200        0.98220
C          0.16670        2.21200        0.98220
C          0.85880        1.06380        0.98220
C          2.35880        1.06380        0.98220
O          2.81880        2.36490        0.98220
C          2.85880        0.35670        2.20700
C          4.35880        0.35670        2.20700
C          4.85880       -0.35040        0.98220
C          6.35880       -0.35040        0.98220
C          6.85880       -1.05750       -0.24250
C         -1.91310        1.49040        2.20010
O         -2.01440        2.30110        3.31220
C         -3.26740        0.98410        1.70920
C         -3.04970        0.56760        0.24590
O         -2.56900       -0.64890        0.28120
C         -1.91820        1.49690       -0.24940
C         -0.85760        0.74270       -0.99540
C         -1.46620        0.07840       -2.19460
C         -0.96940       -1.06970       -2.67650
C          0.21330       -1.73180       -2.03390
C         -0.26030       -2.68260       -0.97480
C         -1.14050       -3.72580       -1.59690
C         -2.32320       -3.06370       -2.23950
O         -3.17340       -2.36750       -1.69630
O         -2.33150       -3.34880       -3.56650
H         -1.66340        3.25200        0.98220
H          2.72220        0.55000        0.09220
H         -1.27680        0.64070        2.46790
H         -3.95480        0.80710       -0.31230
H         -2.31470        2.23610       -0.95030
H          0.67110        3.16730        0.98220
H          0.35440        0.10850        0.98220
H          2.53250        2.91440        0.19730
H          2.49550       -0.67090        2.20700
H          2.49550        0.87060        3.09700
H          4.72220        1.38440        2.20700
H          4.72220       -0.15710        3.09700
H          4.49550       -1.37800        0.98220
H          4.49550        0.16350        0.09220
H          6.72220        0.67730        0.98220
H          6.72220       -0.86420        1.87220
H          6.49550       -2.08520       -0.24250
H          6.49550       -0.54370       -1.13250
H          7.94880       -1.05750       -0.24250
H         -2.57680        3.11880        3.18930
H         -3.98520        1.80400        1.74520
H         -3.66520        0.17980        2.32700
H         -0.42260       -0.01400       -0.34250
H         -0.07950        1.43420       -1.31880
H         -2.31800        0.55530       -2.65740
H         -1.40770       -1.54810       -3.54020
H          0.85290       -0.97370       -1.58190
H          0.77720       -2.28010       -2.78860
H          0.59910       -3.16380       -0.50790
H         -0.82420       -2.13440       -0.22020
H         -0.57660       -4.27410       -2.35160
H         -1.48470       -4.41680       -0.82730
H         -3.07910       -2.92720       -3.95850
