58
PGF2a
C         -1.81060        0.23430        0.57220
C         -0.31060        0.23430        0.57220
C          0.38160        0.23430        1.72040
C          1.88160        0.23430        1.72040
O          2.34160       -0.41630        0.59360
C          2.38160        1.64850        1.72040
C          1.88160        2.35560        2.94510
C          2.38160        1.64850        4.16990
C          1.88160        2.35560        5.39460
C          2.38160        3.76980        5.39460
C         -2.39030       -0.48740        1.79010
O         -2.49160        0.32340        2.90220
C         -3.74470       -0.99360        1.29920
C         -3.52700       -1.41020       -0.16410
O         -3.04630       -2.62660       -0.12880
C         -2.39550       -0.48080       -0.65940
C         -1.33480       -1.23500       -1.40540
C         -1.94350       -1.89930       -2.60460
C         -1.19850       -2.63830       -3.43900
C          0.27070       -2.82770       -3.20370
C          1.03310       -1.74020       -3.90100
C          0.60820       -0.40670       -3.36140
C          1.37050        0.68080       -4.05860
O          1.80600        0.66850       -5.20450
O          1.52410        1.73330       -3.21550
H         -2.14070        1.27420        0.57220
H          2.24490       -0.27960        2.61040
H         -1.75410       -1.33700        2.05790
H         -4.43210       -1.17060       -0.72230
H         -2.79200        0.25840       -1.36020
H          0.19390        0.23430       -0.38310
H         -0.12290        0.23430        2.67570
H          2.05520       -1.37080        0.51020
H          2.01820        2.16230        0.83040
H          3.47160        1.64850        1.72040
H          2.24490        3.38320        2.94510
H          0.79160        2.35560        2.94510
H          2.01820        0.62080        4.16990
H          3.47160        1.64850        4.16990
H          0.79160        2.35560        5.39460
H          2.24490        1.84170        6.28460
H          3.47160        3.76980        5.39460
H          2.01820        4.28360        4.50460
H          2.01820        4.28360        6.28460
H         -1.99120        0.00230        3.70630
H         -4.46250       -0.17370        1.33520
H         -4.14250       -1.79800        1.91700
H         -0.89990       -1.99170       -0.75250
H         -0.55680       -0.54350       -1.72880
H         -3.00160       -1.76280       -2.77410
H         -1.63690       -3.11670       -4.30270
H          0.57950       -3.79670       -3.59580
H          0.47560       -2.78660       -2.13390
H          2.10080       -1.87790       -3.73000
H          0.82820       -1.78130       -4.97070
H         -0.45950       -0.26900       -3.53240
H          0.81310       -0.36560       -2.29160
H          2.00430        2.40950       -3.66540
