58
PGF2a
C         -2.40590        1.23780        0.92200
C         -0.90590        1.23780        0.92200
C         -0.21370        1.23780        2.07010
C          1.28620        1.23780        2.07010
O          1.74630        1.23780        3.37120
C          1.78630        0.01310        1.36300
C          3.28630        0.01310        1.36300
C          3.78630        1.23780        0.65590
C          5.28630        1.23780        0.65590
C          5.78630        0.01310       -0.05120
C         -2.98560        0.51620        2.13990
O         -3.08690        1.32700        3.25200
C         -4.34000        0.01000        1.64900
C         -4.12230       -0.40660        0.18570
O         -3.64160       -1.62300        0.22100
C         -2.99080        0.52270       -0.30970
C         -1.93020       -0.23140       -1.05560
C         -1.82160        0.30730       -2.45130
C         -1.44490       -0.47940       -3.46940
C         -1.11810       -1.92680       -3.24990
C         -0.09210       -2.36540       -4.25240
C          1.15080       -1.54180       -4.08880
C          1.69460       -1.72710       -2.70320
O          1.06300       -1.97210       -1.68160
O          3.04380       -1.58130       -2.72690
H         -2.73600        2.27780        0.92200
H          1.64960        2.12780        1.55630
H         -2.34940       -0.33350        2.40760
H         -5.02740       -0.16700       -0.37250
H         -3.38730        1.26190       -1.01050
H         -0.40140        1.23780       -0.03330
H         -0.71820        1.23780        3.02540
H          1.45990        2.02270        3.92070
H          1.42290        0.01310        0.33540
H          1.42290       -0.87690        1.87690
H          3.64960        0.01310        2.39070
H          3.64960       -0.87690        0.84920
H          3.42290        1.23780       -0.37170
H          3.42290        2.12780        1.16980
H          5.64960        2.12780        0.14210
H          5.64960        1.23780        1.68360
H          5.42290       -0.87690        0.46260
H          5.42290        0.01310       -1.07880
H          6.87630        0.01310       -0.05120
H         -3.64930        2.14460        3.12910
H         -5.05780        0.82980        1.68500
H         -4.73780       -0.79440        2.26680
H         -2.19440       -1.28820       -1.09350
H         -0.97410       -0.11400       -0.54550
H         -2.05700        1.34970       -2.60940
H         -1.36670       -0.09140       -4.47460
H         -2.02130       -2.52530       -3.36880
H         -0.72290       -2.06140       -2.24300
H          0.14530       -3.41720       -4.09290
H         -0.48730       -2.23080       -5.25930
H          1.89630       -1.86060       -4.81730
H          0.91340       -0.49000       -4.24840
H          3.37310       -1.69990       -1.85070
