58
PGF2a
C         -1.87080        1.43630        1.42690
C         -0.37080        1.43630        1.42690
C          0.32130        0.28820        1.42690
C          1.82130        0.28820        1.42690
O          2.28130        0.93870        0.30010
C          2.32130        0.99530        2.65170
C          1.82130        0.28820        3.87640
C          2.32130       -1.12600        3.87640
C          3.82130       -1.12610        3.87640
C          4.32130       -0.41890        5.10110
C         -2.45060        0.71470        2.64480
O         -2.55190        1.52540        3.75690
C         -3.80500        0.20840        2.15390
C         -3.58730       -0.20810        0.69060
O         -3.10660       -1.42450        0.72590
C         -2.45570        0.72120        0.19520
C         -1.39510       -0.03290       -0.55070
C         -2.00380       -0.69720       -1.74990
C         -1.28560       -0.91120       -2.86160
C          0.15280       -0.49410       -2.94650
C          0.32310        0.48830       -4.06720
C         -0.08920       -0.15140       -5.35980
C          0.76650       -1.35630       -5.61670
O          0.45600       -2.37470       -6.22430
O          1.99040       -1.16460       -5.06220
H         -2.20100        2.47630        1.42690
H          2.18460       -0.73950        1.42690
H         -1.81440       -0.13500        2.91260
H         -4.49240        0.03150        0.13240
H         -2.85230        1.46040       -0.50560
H          0.13360        2.39160        1.42690
H         -0.18310       -0.66710        1.42690
H          2.84940        1.74210        0.47830
H          1.95800        2.02290        2.65170
H          3.41130        0.99530        2.65170
H          2.18460        0.80200        4.76640
H          0.73130        0.28820        3.87640
H          1.95800       -1.63990        4.76640
H          1.95800       -1.63990        2.98640
H          4.18460       -2.15370        3.87640
H          4.18460       -0.61220        2.98640
H          3.95800        0.60870        5.10110
H          3.95790       -0.93280        5.99110
H          5.41130       -0.41890        5.10110
H         -3.11430        2.34310        3.63400
H         -4.52280        1.02830        2.18990
H         -4.20280       -0.59590        2.77170
H         -0.96020       -0.78970        0.10220
H         -0.61710        0.65860       -0.87410
H         -3.03960       -0.99760       -1.68880
H         -1.72390       -1.38960       -3.72530
H          0.77450       -1.36970       -3.13320
H          0.45240       -0.02930       -2.00720
H         -0.29870        1.36390       -3.88050
H          1.36830        0.79140       -4.12900
H         -1.13440       -0.45450       -5.29810
H          0.03460        0.56250       -6.17420
H          2.51820       -1.92830       -5.23060
