54
15S-HETE
C         -1.10310       -1.45890       -4.23630
O         -0.61790       -0.48790       -3.63700
O         -0.53000       -2.55850       -4.24320
C         -2.40590       -1.26020       -4.95280
C         -2.86290        0.15740       -4.77520
C         -1.83330        1.08940       -5.34200
C         -2.29040        2.50700       -5.16450
C         -2.52690        3.01040       -3.94470
C         -2.34300        2.17430       -2.71300
C         -1.95120        3.05570       -1.56420
C         -1.17930        2.59450       -0.56990
C         -0.67930        1.18030       -0.56990
C          0.82070        1.18030       -0.56990
C          1.51280        0.60620        0.42440
C          0.81240       -0.05700        1.57310
C          1.50460       -0.63110        2.56750
C          0.80420       -1.29430        3.71620
O         -0.40700       -1.79800        3.28760
C          1.65370       -2.41370        4.24080
C          2.97020       -1.86620        4.70670
C          2.73680       -0.86250        5.79670
C          4.05320       -0.31500        6.26260
C          4.90280       -1.43440        6.78720
H          0.63450       -0.56500        4.50830
H         -2.27230       -1.46860       -6.01430
H         -3.15400       -1.93740       -4.54090
H         -3.80960        0.30180       -5.29580
H         -2.99660        0.36580       -3.71370
H         -1.69970        0.88100       -6.40360
H         -0.88670        0.94500       -4.82140
H         -2.42280        3.10920       -6.05160
H         -2.85610        4.03130       -3.81680
H         -1.56020        1.43640       -2.88820
H         -3.27700        1.66410       -2.47740
H         -2.31130        4.07420       -1.56420
H         -0.89710        3.22930        0.25740
H         -1.04260        0.66650        0.32010
H         -1.04260        0.66650       -1.45990
H          1.32510        1.65790       -1.39720
H          2.59310        0.60620        0.42440
H         -0.26780       -0.05700        1.57310
H          2.58480       -0.63110        2.56750
H         -1.04120       -1.11790        2.91960
H          1.14480       -2.89560        5.07560
H          1.82340       -3.14300        3.44870
H          3.58760       -2.67960        5.08790
H          3.47920       -1.38420        3.87200
H          2.22780       -1.34440        6.63150
H          2.11940       -0.04910        5.41550
H          4.56220        0.16700        5.42790
H          3.88360        0.41430        7.05470
H          5.85950       -1.03650        7.12580
H          4.39390       -1.91630        7.62200
H          5.07250       -2.16370        5.99520
