54
15S-HETE
C         -0.96750       -0.94950       -8.16660
O         -1.32870       -2.12430       -8.00250
O         -0.89240       -0.45540       -9.30140
C         -0.62440       -0.14550       -6.94760
C         -1.82220       -0.06520       -6.04820
C         -1.47910        0.73880       -4.82920
C         -2.67690        0.81900       -3.92980
C         -2.62690        1.48710       -2.76860
C         -1.37140        2.17860       -2.32640
C         -1.60480        2.83890       -1.00000
C         -1.37410        2.18640        0.14820
C         -0.87410        0.77220        0.14820
C          0.62590        0.77220        0.14820
C          1.31800        0.19810        1.14250
C          0.61760       -0.46510        2.29120
C          1.30970       -1.03920        3.28550
C          0.60930       -1.70240        4.43430
O          0.39450       -3.03250        4.13600
C          1.45890       -1.59700        5.66600
C          1.69230       -0.15120        5.99020
C          2.54190       -0.04590        7.22190
C          2.77540        1.40000        7.54610
C          3.47580        2.06320        6.39740
H         -0.34730       -1.21030        4.60950
H          0.19770       -0.62450       -6.41600
H         -0.32700        0.85950       -7.24710
H         -2.64440        0.41380       -6.57990
H         -2.11970       -1.07020       -5.74870
H         -1.18160        1.74370       -5.12870
H         -0.65700        0.25970       -4.29760
H         -3.58110        0.32100       -4.24820
H         -3.48950        1.54490       -2.12080
H         -1.09270        2.93190       -3.06330
H         -0.56800        1.44790       -2.23210
H         -1.96490        3.85740       -1.00000
H         -1.54230        2.66200        1.10350
H         -1.23750        0.25840        1.03810
H         -1.23750        0.25840       -0.74180
H          1.13030        1.24980       -0.67910
H          2.39830        0.19810        1.14250
H         -0.46270       -0.46510        2.29120
H          2.39000       -1.03920        3.28550
H          0.82330       -3.68120        4.76480
H          0.94990       -2.07900        6.50070
H          2.41550       -2.08920        5.49070
H          2.20130        0.33070        5.15540
H          0.73570        0.34090        6.16550
H          3.49860       -0.53800        7.04660
H          2.03290       -0.52780        8.05660
H          1.81870        1.89210        7.72140
H          3.39270        1.47650        8.44120
H          3.64540        3.11380        6.63300
H          4.43240        1.57110        6.22210
H          2.85840        1.98660        5.50230
