54
15S-HETE
C         -1.03840        5.36180        4.06590
O         -0.52990        5.06380        5.15680
O         -2.15090        5.90610        4.00550
C         -0.26410        5.04230        2.82160
C         -0.02090        3.56390        2.74980
C         -1.33530        2.84180        2.71990
C         -1.09210        1.36340        2.64810
C         -1.55000        0.63580        1.61940
C         -2.32220        1.27370        0.50280
C         -1.47260        2.31690       -0.16050
C         -0.30450        1.99580       -0.73450
C          0.19550        0.58160       -0.73450
C          1.69550        0.58160       -0.73450
C          2.38770       -0.41270       -1.30860
C          1.68730       -1.56150       -1.97180
C          2.37940       -2.55580       -2.54590
C          1.67900       -3.70450       -3.20910
O          2.46060       -4.18710       -4.23890
C          1.44550       -4.79450       -2.20540
C          0.59590       -4.26990       -1.08610
C         -0.72060       -3.80400       -1.63360
C         -1.57010       -3.27940       -0.51420
C         -2.88660       -2.81350       -1.06170
H          0.72230       -3.36590       -3.60700
H         -0.83330        5.35970        1.94780
H          0.69110        5.56700        2.84320
H          0.54180        3.33170        1.84560
H          0.54830        3.24640        3.62350
H         -1.90450        3.15930        1.84620
H         -1.89800        3.07400        3.62410
H         -0.53600        0.90400        3.45230
H         -1.37490       -0.42890        1.56770
H         -3.22270        1.73920        0.90330
H         -2.60020        0.51350       -0.22730
H         -1.83270        3.33540       -0.16050
H          0.30740        2.74720       -1.21220
H         -0.16780        0.06780        0.15540
H         -0.16780        0.06780       -1.62450
H          2.20000        1.40890       -0.25690
H          3.46790       -0.41270       -1.30860
H          0.60700       -1.56150       -1.97180
H          3.45970       -2.55580       -2.54590
H          2.73180       -5.14560       -4.15020
H          0.93650       -5.62930       -2.68740
H          2.40220       -5.13310       -1.80760
H          0.42630       -5.06200       -0.35670
H          1.10490       -3.43520       -0.60410
H         -1.22950       -4.63870       -2.11550
H         -0.55090       -3.01190       -2.36290
H         -1.73980       -4.07150        0.21510
H         -1.06120       -2.44460       -0.03220
H         -3.50400       -2.43230       -0.24830
H         -2.71700       -2.02140       -1.79100
H         -3.39560       -3.64820       -1.54360
