54
15S-HETE
C         -7.04040       -0.26170        1.80150
O         -8.00750       -0.68220        2.45380
O         -7.15720        0.70640        1.03550
C         -5.72470       -0.96220        1.96910
C         -4.95380       -0.31840        3.08320
C         -3.63800       -1.01890        3.25080
C         -2.86710       -0.37510        4.36490
C         -1.52660       -0.35970        4.36030
C         -0.74880       -0.98580        3.24090
C          0.10080        0.05740        2.57770
C          1.26890       -0.26370        2.00370
C          1.76890       -1.67790        2.00370
C          3.26890       -1.67790        2.00370
C          3.96100       -1.10380        1.00930
C          3.26060       -0.44060       -0.13940
C          3.95270        0.13350       -1.13370
C          3.25230        0.79670       -2.28240
O          4.18810        1.30390       -3.16080
C          2.39360       -0.20800       -2.99180
C          1.69320        0.45530       -4.14050
C          2.71030        1.00650       -5.09530
C          2.00990        1.66970       -6.24400
C          3.02700        2.22100       -7.19880
H          2.62830        1.60810       -1.90790
H         -5.89940       -2.01140        2.20720
H         -5.15400       -0.88990        1.04330
H         -4.77900        0.73090        2.84510
H         -5.52440       -0.39070        4.00910
H         -3.06740       -0.94660        2.32500
H         -3.81280       -2.06810        3.48890
H         -3.42730        0.07590        5.17110
H         -0.97140        0.10400        5.16270
H         -1.43900       -1.40980        2.51160
H         -0.11070       -1.77490        3.63880
H         -0.25930        1.07590        2.57770
H          1.88080        0.48770        1.52600
H          1.40560       -2.19170        2.89360
H          1.40560       -2.19170        1.11370
H          3.77330       -2.15550        2.83100
H          5.04130       -1.10380        1.00930
H          2.18030       -0.44060       -0.13940
H          5.03300        0.13350       -1.13370
H          4.80770        1.98530       -2.77130
H          3.01760       -1.01940       -3.36630
H          1.65450       -0.60850       -2.29800
H          1.06920       -0.27480       -4.65600
H          1.06920        1.26670       -3.76600
H          3.33430        0.19510       -5.46980
H          3.33430        1.73660       -4.57980
H          1.38590        0.93970       -6.75950
H          1.38590        2.48120       -5.86950
H          2.51810        2.70290       -8.03360
H          3.65100        2.95100       -6.68340
H          3.65100        1.40950       -7.57330
