54
15S-HETE
C          0.44350        1.95550        3.59010
O         -0.00190        1.44360        2.55220
O          0.01080        1.62440        4.70400
C          1.52280        2.98830        3.45420
C          2.34110        2.69850        2.23090
C          1.45840        2.73530        1.01870
C          0.83680        4.09470        0.89390
C         -0.36970        4.25510        0.33180
C         -1.14190        3.08100       -0.19280
C         -2.00060        3.52020       -1.34160
C         -2.31120        2.67630       -2.33590
C         -1.81120        1.26210       -2.33590
C         -0.31120        1.26210       -2.33590
C          0.38090        0.26780       -1.76180
C         -0.31950       -0.88090       -1.09860
C          0.37270       -1.87530       -0.52450
C         -0.32770       -3.02400        0.13870
O         -1.11780       -2.54980        1.16600
C         -1.18650       -3.73330       -0.86600
C         -0.32770       -4.24870       -1.98260
C          0.68940       -5.20350       -1.43140
C          1.54810       -5.71890       -2.54800
C          2.24850       -4.57020       -3.21130
H          0.41140       -3.71780        0.53930
H          1.07110        3.97610        3.36350
H          2.16420        2.96160        4.33510
H          3.12540        3.44900        2.13220
H          2.79280        1.71060        2.32160
H          0.67410        1.98480        1.11740
H          2.05300        2.52460        0.12980
H          1.39290        4.94020        1.27170
H         -0.81740        5.23410        0.24190
H         -1.77300        2.67790        0.59920
H         -0.44790        2.31160       -0.53140
H         -2.36070        4.53870       -1.34160
H         -2.92960        2.99270       -3.16320
H         -2.17450        0.74830       -1.44590
H         -2.17450        0.74830       -3.22590
H          0.19320        2.08940       -2.81350
H          1.46120        0.26780       -1.76180
H         -1.39970       -0.88090       -1.09860
H          1.45290       -1.87530       -0.52450
H         -0.62600       -2.06010        1.88590
H         -1.69550       -4.56810       -0.38410
H         -1.92560       -3.03950       -1.26660
H         -0.95180       -4.76420       -2.71270
H          0.18120       -3.41400       -2.46460
H          0.18040       -6.03830       -0.94950
H          1.31340       -4.68810       -0.70130
H          2.28720       -6.41270       -2.14750
H          0.92410       -6.23440       -3.27810
H          2.87260       -4.94470       -4.02270
H          1.50940       -3.87640       -3.61180
H          2.87260       -4.05470       -2.48120
