54
15S-HETE
C         -4.81360       -4.16770        0.79510
O         -4.70770       -3.78080        1.96850
O         -5.92620       -4.32040        0.26930
C         -3.55200       -4.44510        0.03250
C         -2.45620       -3.55400        0.53760
C         -2.85060       -2.11940        0.34690
C         -1.75480       -1.22820        0.85190
C         -1.13820       -0.35990        0.03760
C         -1.52170       -0.24780       -1.40820
C         -0.67220        0.79540       -2.07140
C          0.49600        0.47430       -2.64550
C          0.99600       -0.93990       -2.64550
C          2.49600       -0.93990       -2.64550
C          3.18810       -0.36580       -1.65110
C          2.48770        0.29740       -0.50240
C          3.17980        0.87150        0.49190
C          2.47940        1.53470        1.64060
O          2.83990        0.91420        2.81940
C          2.87130        2.98150        1.69710
C          2.47940        3.65600        0.41590
C          0.99540        3.54690        0.22690
C          0.60360        4.22140       -1.05430
C          0.99540        5.66820       -0.99780
H          1.40100        1.45540        1.50330
H         -3.26550       -5.48760        0.17110
H         -3.71810       -4.25180       -1.02730
H         -2.29010       -3.74730        1.59740
H         -1.53950       -3.75560       -0.01660
H         -3.76730       -1.91780        0.90100
H         -3.01670       -1.92600       -0.71290
H         -1.47860       -1.30890        1.89320
H         -0.34910        0.28190        0.40140
H         -2.57140        0.03590       -1.48470
H         -1.36810       -1.20820       -1.90030
H         -1.03230        1.81390       -2.07140
H          1.10790        1.22570       -3.12310
H          0.63270       -1.45370       -1.75550
H          0.63270       -1.45370       -3.53540
H          3.00040       -1.41750       -3.47280
H          4.26840       -0.36580       -1.65110
H          1.40740        0.29740       -0.50240
H          4.26010        0.87150        0.49190
H          3.28510        1.50720        3.49020
H          2.36230        3.46350        2.53190
H          3.94970        3.06080        1.83440
H          2.76420        4.70740        0.45690
H          2.98840        3.17410       -0.41880
H          0.48640        4.02890        1.06170
H          0.71070        2.49560        0.18590
H          1.11250        3.73950       -1.88900
H         -0.47480        4.14210       -1.19160
H          0.71070        6.15840       -1.92880
H          0.48640        6.15020       -0.16310
H          2.07380        5.74750       -0.86050
