54
15S-HETE
C         -2.59240        4.12200       -6.01400
O         -3.51420        4.68350       -6.62430
O         -1.70300        4.77880       -5.45250
C         -2.58810        2.62250       -5.97690
C         -3.35570        2.14980       -4.77800
C         -2.71390        2.68260       -3.53130
C         -3.48150        2.20990       -2.33250
C         -2.89570        1.46280       -1.38600
C         -1.45120        1.07240       -1.49130
C         -0.60160        2.11570       -0.82810
C          0.56650        1.79460       -0.25400
C          1.06650        0.38040       -0.25400
C          2.56650        0.38040       -0.25400
C          3.25860       -0.19370        0.74030
C          2.55820       -0.85690        1.88900
C          3.25040       -1.43100        2.88330
C          2.55000       -2.09420        4.03210
O          1.18460       -1.99380        3.85820
C          2.94180       -3.54100        4.08850
C          2.24140       -4.20430        5.23730
C          0.75730       -4.09520        5.04830
C          0.36550       -4.76970        3.76710
C          0.75730       -6.21650        3.82360
H          2.83470       -1.60410        4.96310
H         -3.05450        2.23530       -6.88280
H         -1.56070        2.26350       -5.91520
H         -4.38300        2.50880       -4.83970
H         -3.35260        1.06010       -4.75100
H         -2.71700        3.77230       -3.55830
H         -1.68650        2.32370       -3.46970
H         -4.52180        2.49110       -2.25660
H         -3.44850        1.12240       -0.52250
H         -1.17250        0.99100       -2.54190
H         -1.29760        0.11210       -0.99920
H         -0.96170        3.13420       -0.82810
H          1.17840        2.54590        0.22360
H          0.70320       -0.13350        0.63600
H          0.70320       -0.13350       -1.14400
H          3.07100        0.85800       -1.08130
H          4.33890       -0.19370        0.74030
H          1.47800       -0.85690        1.88900
H          4.33070       -1.43100        2.88330
H          0.83240       -1.05920        3.80920
H          2.65710       -4.03120        3.15750
H          4.02020       -3.62030        4.22590
H          2.52610       -5.25560        5.27830
H          2.52610       -3.71410        6.16830
H          0.47260       -3.04380        5.00730
H          0.24840       -4.57710        5.88310
H         -0.71290       -4.69040        3.62980
H          0.87450       -4.28770        2.93230
H          0.47260       -6.70660        2.89250
H          1.83570       -6.29570        3.96090
H          0.24840       -6.69840        4.65830
