54
15S-HETE
C         -3.41500        3.30380       -4.19740
O         -4.48190        2.67870       -4.29020
O         -3.33070        4.32650       -3.50120
C         -2.22970        2.78270       -4.95470
C         -1.91110        1.39260       -4.48980
C         -0.72580        0.87150       -5.24710
C         -0.40720       -0.51860       -4.78220
C          0.44080       -0.73110       -3.76570
C          1.10170        0.41340       -3.05640
C          0.24300        0.85270       -1.90770
C         -0.06760        0.00880       -0.91340
C          0.43240       -1.40540       -0.91340
C          1.93240       -1.40540       -0.91340
C          2.62460       -1.40540        0.23480
C          1.92420       -1.40540        1.56120
C          2.61630       -1.40540        2.70940
C          1.91590       -1.40540        4.03580
O          2.85160       -1.40540        5.05010
C          1.05710       -0.18070        4.14780
C          0.35670       -0.18070        5.47420
C         -0.50200       -1.40540        5.58620
C         -1.51910       -1.40540        4.48370
C         -2.37790       -0.18070        4.59570
H          1.29190       -2.29540        4.11720
H         -2.45810        2.76600       -6.02030
H         -1.37150        3.43090       -4.77720
H         -1.68270        1.40930       -3.42410
H         -2.76930        0.74450       -4.66730
H          0.13240        1.51970       -5.06960
H         -0.95420        0.85480       -6.31270
H         -0.88320       -1.34290       -5.29300
H          0.67030       -1.73220       -3.43090
H          1.23300        1.24380       -3.75020
H          2.07480        0.09560       -2.68190
H         -0.11710        1.87120       -1.90770
H         -0.68600        0.32520       -0.08610
H          0.06910       -1.91920       -0.02340
H          0.06910       -1.91920       -1.80330
H          2.43690       -1.40540       -1.86860
H          3.70490       -1.40540        0.23480
H          0.84390       -1.40540        1.56120
H          3.69660       -1.40540        2.70940
H          3.47130       -2.19030        5.05340
H          1.68120        0.70930        4.06640
H          0.31800       -0.18070        3.34660
H          1.09580       -0.18070        6.27540
H         -0.26730        0.70930        5.55560
H         -1.01100       -1.40540        6.55010
H          0.12200       -2.29540        5.50480
H         -1.01020       -1.40540        3.51980
H         -2.14320       -2.29540        4.56510
H         -3.11700       -0.18070        3.79450
H         -2.88690       -0.18070        5.55960
H         -1.75390        0.70930        4.51430
