54
15S-HETE
C         -3.80870       -2.56200       -0.42450
O         -4.37360       -2.85670        0.63930
O         -4.27570       -2.91690       -1.51700
C         -2.54200       -1.76230       -0.34680
C         -2.87090       -0.29940       -0.38840
C         -3.58390        0.01650       -1.66980
C         -3.91280        1.47940       -1.71140
C         -2.94720        2.40780       -1.65620
C         -1.50270        2.01740       -1.55080
C         -0.65310        3.06060       -2.21400
C          0.51500        2.73950       -2.78810
C          1.01500        1.32530       -2.78810
C          2.51500        1.32530       -2.78810
C          3.20720        0.75120       -1.79380
C          2.50680        0.08800       -0.64510
C          3.19890       -0.48600        0.34930
C          2.49850       -1.14930        1.49800
O          2.28370       -2.47940        1.19970
C          3.34800       -1.04390        2.72970
C          3.58150        0.40190        3.05390
C          2.26500        1.07920        3.29510
C          1.56460        0.41590        4.44380
C          0.24810        1.09320        4.68500
H          1.54180       -0.65710        1.67330
H         -2.02400       -1.99190        0.58440
H         -1.90060       -2.01470       -1.19120
H         -3.51240       -0.04710        0.45600
H         -1.95050        0.28170       -0.33190
H         -4.50430       -0.56460       -1.72630
H         -2.94240       -0.23580       -2.51420
H         -4.95310        1.76060       -1.78730
H         -3.18400        3.46130       -1.68620
H         -1.34910        1.05700       -2.04290
H         -1.22400        1.93600       -0.50020
H         -1.01320        4.07910       -2.21400
H          1.12690        3.49090       -3.26580
H          0.65170        0.81150       -1.89810
H          0.65170        0.81150       -3.67810
H          3.01950        1.80300       -3.61540
H          4.28740        0.75120       -1.79380
H          1.42650        0.08800       -0.64510
H          4.27920       -0.48600        0.34930
H          1.72330       -2.64540        0.38830
H          2.83910       -1.52580        3.56440
H          4.30470       -1.53600        2.55440
H          4.19890        0.47850        3.94900
H          4.09050        0.88390        2.21920
H          1.64770        1.00260        2.40010
H          2.43470        2.12980        3.53070
H          1.39490       -0.63470        4.20830
H          2.18200        0.49250        5.33890
H         -0.26090        0.61120        5.51980
H          0.41780        2.14380        4.92060
H         -0.36930        1.01660        3.79000
