53
Petroselinic_acid
C         -3.68390        3.41480       -5.28930
C         -3.18390        4.12190       -4.06460
C         -3.68390        3.41480       -2.83990
C         -3.18390        4.12190       -1.61510
C         -1.68390        4.12190       -1.61510
C         -1.18390        2.70770       -1.61510
C          0.31610        2.70770       -1.61510
C          0.81610        1.29350       -1.61510
C          2.31610        1.29350       -1.61510
C          2.81610       -0.12080       -1.61510
C          2.31610       -0.82790       -0.39040
C          2.81610       -2.24210       -0.39040
C          3.04680       -2.89460        0.75780
C          2.81330       -2.23430        2.08420
C          1.78920       -3.01190        2.85650
C          0.50390       -3.05080        2.08420
C         -0.52020       -3.82840        2.85650
C         -0.75370       -3.16810        4.18300
O         -1.62500       -2.29650        4.31960
O         -0.04700       -3.52210        5.13840
H         -3.32060        3.92860       -6.17930
H         -3.32060        2.38710       -5.28930
H         -4.77390        3.41480       -5.28930
H         -3.54730        5.14950       -4.06460
H         -2.09390        4.12190       -4.06460
H         -4.77390        3.41480       -2.83990
H         -3.32060        2.38710       -2.83990
H         -3.54730        3.60810       -0.72510
H         -3.54730        5.14950       -1.61510
H         -1.32060        4.63570       -2.50510
H         -1.32060        4.63570       -0.72510
H         -1.54730        2.19380       -2.50510
H         -1.54730        2.19380       -0.72510
H          0.67940        3.22150       -2.50510
H          0.67940        3.22150       -0.72510
H          0.45270        0.77960       -0.72510
H          0.45270        0.77960       -2.50510
H          2.67940        1.80730       -0.72510
H          2.67940        1.80730       -2.50510
H          2.45270       -0.63460       -2.50510
H          3.90610       -0.12080       -1.61510
H          2.67940       -0.31400        0.49960
H          1.22610       -0.82790       -0.39040
H          2.98420       -2.71770       -1.34570
H          3.40690       -3.91310        0.75780
H          3.74730       -2.20600        2.64540
H          2.45380       -1.21750        1.92570
H          1.61950       -2.53210        3.82040
H          2.14870       -4.02870        3.01510
H          0.67350       -3.53060        1.12030
H          0.14440       -2.03400        1.92570
H         -0.16070       -4.84520        3.01510
H         -1.45420       -3.85670        2.29530
