53
Petroselinic_acid
C         -3.89380        0.40460       -5.69050
C         -3.39380        1.11170       -4.46580
C         -3.89380        0.40460       -3.24100
C         -3.39380        1.11170       -2.01630
C         -3.89380        0.40460       -0.79150
C         -3.39380        1.11170        0.43320
C         -3.89380        0.40460        1.65790
C         -3.39380       -1.00960        1.65790
C         -1.89380       -1.00960        1.65790
C         -1.39380       -2.42390        1.65790
C          0.10620       -2.42390        1.65790
C          0.60620       -1.71670        0.43320
C          1.37820       -0.62510        0.53100
C          1.77000       -0.07090        1.86870
C          3.05530       -0.70270        2.31460
C          4.13260       -0.40390        1.31450
C          4.31650        1.08090        1.20630
C          5.39380        1.37970        0.20630
O          5.37610        2.42490       -0.46070
O          6.30280        0.54760        0.06840
H         -3.53040        0.91840       -6.58050
H         -3.53040       -0.62310       -5.69050
H         -4.98380        0.40460       -5.69050
H         -3.75710        2.13930       -4.46580
H         -2.30380        1.11170       -4.46580
H         -4.98380        0.40460       -3.24100
H         -3.53040       -0.62310       -3.24100
H         -3.75710        2.13930       -2.01630
H         -2.30380        1.11170       -2.01630
H         -4.98380        0.40460       -0.79150
H         -3.53040       -0.62310       -0.79150
H         -3.75710        2.13930        0.43320
H         -2.30380        1.11170        0.43320
H         -3.53040        0.91840        2.54790
H         -4.98380        0.40460        1.65790
H         -3.75710       -1.52350        2.54790
H         -3.75710       -1.52350        0.76800
H         -1.53040       -0.49580        2.54790
H         -1.53040       -0.49580        0.76800
H         -1.75710       -2.93770        2.54790
H         -1.75710       -2.93770        0.76800
H          0.46960       -1.91000        2.54790
H          0.46960       -3.45150        1.65790
H          0.32400       -2.11580       -0.53020
H          1.73830       -0.11580       -0.35110
H          1.90360        1.00800        1.79000
H          0.98710       -0.28810        2.59530
H          2.92170       -1.78160        2.39320
H          3.34000       -0.30010        3.28660
H          3.84790       -0.80650        0.34250
H          5.06660       -0.86300        1.63860
H          4.60120        1.48350        2.17840
H          3.38250        1.54000        0.88230
