53
Petroselinic_acid
C         -6.00470        4.99180       -2.77220
C         -5.50470        5.69890       -1.54750
C         -4.00470        5.69890       -1.54750
C         -3.50470        4.28470       -1.54750
C         -4.00470        3.57760       -0.32270
C         -3.50470        2.16330       -0.32270
C         -4.00470        1.45620        0.90200
C         -3.50470        0.04200        0.90200
C         -2.00470        0.04200        0.90200
C         -1.50470       -1.37220        0.90200
C         -0.00470       -1.37220        0.90200
C          0.49530       -2.78640        0.90200
C          1.66350       -3.10750        1.47610
C          2.51310       -2.06420        2.13930
C          3.95750       -2.45460        2.03400
C          4.34100       -2.56670        0.58810
C          5.78550       -2.95710        0.48280
C          6.16900       -3.06910       -0.96300
O          7.05050       -3.85920       -1.33220
O          5.57570       -2.34600       -1.77710
H         -7.09470        4.99180       -2.77220
H         -5.64130        5.50560       -3.66220
H         -5.64130        3.96410       -2.77220
H         -5.86800        5.18500       -0.65750
H         -5.86800        6.72650       -1.54750
H         -3.64130        6.21270       -2.43740
H         -3.64130        6.21270       -0.65750
H         -2.41470        4.28470       -1.54750
H         -3.86800        3.77080       -2.43740
H         -3.64130        4.09140        0.56730
H         -5.09470        3.57760       -0.32270
H         -2.41470        2.16330       -0.32270
H         -3.86800        1.64950       -1.21270
H         -3.64130        1.97010        1.79200
H         -5.09470        1.45620        0.90200
H         -3.86800       -0.47180        1.79200
H         -3.86800       -0.47180        0.01200
H         -1.64130        0.55590        1.79200
H         -1.64130        0.55590        0.01200
H         -1.86800       -1.88600        1.79200
H         -1.86800       -1.88600        0.01200
H          0.35870       -0.85840        0.01200
H          0.35870       -0.85840        1.79200
H         -0.11650       -3.53770        0.42440
H          2.02360       -4.12600        1.47610
H          2.35940       -1.10390        1.64720
H          2.23440       -1.98280        3.18990
H          4.11120       -3.41500        2.52610
H          4.57490       -1.69660        2.51590
H          4.18740       -1.60630        0.09600
H          3.72370       -3.32480        0.10620
H          5.93910       -3.91750        0.97490
H          6.40280       -2.19900        0.96470
