53
Petroselinic_acid
C         -9.07960        2.86950       -1.78530
C         -8.57960        1.45520       -1.78530
C         -7.07960        1.45520       -1.78530
C         -6.57960        2.16240       -0.56060
C         -5.07960        2.16240       -0.56060
C         -4.57960        0.74810       -0.56060
C         -3.07960        0.74810       -0.56060
C         -2.57960       -0.66610       -0.56060
C         -1.07960       -0.66610       -0.56060
C         -0.57960       -2.08030       -0.56060
C          0.92040       -2.08030       -0.56060
C          1.42040       -1.37320        0.66420
C          2.58860       -0.71550        0.65520
C          3.43820       -0.66270       -0.57990
C          4.77670       -1.27570       -0.29260
C          5.44960       -0.51310        0.81010
C          6.78810       -1.12610        1.09740
C          7.46100       -0.36350        2.20000
O          8.24870       -0.92300        2.97710
O          7.20380        0.84460        2.30910
H        -10.16960        2.86950       -1.78530
H         -8.71620        3.38330       -0.89530
H         -8.71620        3.38330       -2.67530
H         -8.94290        0.94140       -2.67530
H         -8.94290        0.94140       -0.89530
H         -6.71620        0.42760       -1.78530
H         -6.71620        1.96910       -2.67530
H         -6.94290        1.64850        0.32940
H         -6.94290        3.19000       -0.56060
H         -4.71620        2.67620       -1.45060
H         -4.71620        2.67620        0.32940
H         -4.94290        0.23430       -1.45060
H         -4.94290        0.23430        0.32940
H         -2.71620        1.26200       -1.45060
H         -2.71620        1.26200        0.32940
H         -2.94290       -1.17990        0.32940
H         -2.94290       -1.17990       -1.45060
H         -0.71620       -0.15220        0.32940
H         -0.71620       -0.15220       -1.45060
H         -0.94290       -2.59410        0.32940
H         -0.94290       -2.59410       -1.45060
H          1.28380       -3.10790       -0.56060
H          1.28380       -1.56650       -1.45060
H          0.80860       -1.41120        1.55370
H          2.94870       -0.20620        1.53730
H          2.94920       -1.21690       -1.38110
H          3.57180        0.37510       -0.88490
H          5.39410       -1.23740       -1.19010
H          4.64310       -2.31360        0.01250
H          4.83220       -0.55140        1.70760
H          5.58320        0.52480        0.50500
H          7.40550       -1.08780        0.19990
H          6.65450       -2.16400        1.40240
