53
Petroselinic_acid
C         -2.58620        3.14980        0.60080
C         -4.08620        3.14980        0.60080
C         -4.58620        2.44270       -0.62390
C         -4.08620        1.02850       -0.62390
C         -4.58620        0.32140        0.60080
C         -4.08620       -1.09280        0.60080
C         -2.58620       -1.09280        0.60080
C         -2.08620       -2.50700        0.60080
C         -0.58620       -2.50700        0.60080
C         -0.08620       -3.92120        0.60080
C          1.41380       -3.92120        0.60080
C          1.91380       -3.21410       -0.62390
C          2.68580       -2.12240       -0.52620
C          3.07760       -1.56830        0.81150
C          3.93640       -0.35390        0.61760
C          3.16980        0.68340       -0.14820
C          4.02860        1.89790       -0.34220
C          3.26200        2.93520       -1.10800
O          3.77160        4.03020       -1.38880
O          2.10220        2.66200       -1.45120
H         -2.22280        3.66370        1.49080
H         -2.22280        2.12220        0.60080
H         -2.22280        3.66370       -0.28920
H         -4.44950        4.17750        0.60080
H         -4.44950        2.63600        1.49080
H         -5.67620        2.44270       -0.62390
H         -4.22280        2.95650       -1.51390
H         -2.99620        1.02850       -0.62390
H         -4.44950        0.51470       -1.51390
H         -4.22280        0.83520        1.49080
H         -5.67620        0.32140        0.60080
H         -4.44950       -1.60660       -0.28920
H         -4.44950       -1.60660        1.49080
H         -2.22280       -0.57900       -0.28920
H         -2.22280       -0.57900        1.49080
H         -2.44950       -3.02090        1.49080
H         -2.44950       -3.02090       -0.28920
H         -0.22280       -1.99320        1.49080
H         -0.22280       -1.99320       -0.28920
H         -0.44950       -4.43510        1.49080
H         -0.44950       -4.43510       -0.28920
H          1.77720       -3.40740        1.49080
H          1.77720       -4.94890        0.60080
H          1.63160       -3.61320       -1.58730
H          3.04590       -1.61320       -1.40820
H          2.18130       -1.29440        1.36800
H          3.63460       -2.32210        1.36800
H          4.83270       -0.62780        0.06110
H          4.22110        0.04880        1.58960
H          2.27350        0.95730        0.40830
H          2.88510        0.28080       -1.12030
H          4.92490        1.62400       -0.89870
H          4.31330        2.30050        0.62990
