53
Petroselinic_acid
C         -4.23340        6.98900        2.51100
C         -3.73340        5.57480        2.51100
C         -4.23340        4.86770        1.28620
C         -3.73340        3.45350        1.28620
C         -4.23340        2.74640        0.06150
C         -3.73340        1.33210        0.06150
C         -4.23340        0.62500       -1.16320
C         -3.73340       -0.78920       -1.16320
C         -2.23340       -0.78920       -1.16320
C         -1.73340       -2.20340       -1.16320
C         -0.23340       -2.20340       -1.16320
C          0.26660       -1.49630        0.06150
C          1.57980       -1.36140        0.29520
C          2.59690       -1.91260       -0.65960
C          3.83610       -1.06880       -0.61220
C          4.85320       -1.62000       -1.56700
C          5.19230       -3.02850       -1.17820
C          5.75340       -3.04190        0.21290
O          5.20280       -3.68460        1.11910
O          6.78580       -2.38930        0.42700
H         -3.87000        7.50280        3.40100
H         -3.87000        7.50280        1.62100
H         -5.32340        6.98900        2.51100
H         -4.09670        5.06100        3.40100
H         -2.64340        5.57480        2.51100
H         -5.32340        4.86770        1.28620
H         -3.87000        5.38150        0.39630
H         -4.09670        2.93960        2.17620
H         -2.64340        3.45350        1.28620
H         -5.32340        2.74640        0.06150
H         -3.87000        3.26020       -0.82850
H         -4.09670        0.81830        0.95150
H         -2.64340        1.33210        0.06150
H         -5.32340        0.62500       -1.16320
H         -3.87000        1.13890       -2.05320
H         -4.09670       -1.30300       -0.27330
H         -4.09670       -1.30300       -2.05320
H         -1.87000       -0.27530       -0.27330
H         -1.87000       -0.27530       -2.05320
H         -2.09670       -2.71720       -0.27330
H         -2.09670       -2.71720       -2.05320
H          0.13000       -3.23110       -1.16320
H          0.13000       -1.68960       -2.05320
H         -0.46590       -1.09930        0.74910
H          1.93990       -0.85210        1.17720
H          2.84330       -2.93610       -0.37700
H          2.18920       -1.90290       -1.67040
H          4.24390       -1.07850        0.39860
H          3.58980       -0.04530       -0.89480
H          5.75370       -1.00680       -1.53260
H          4.44550       -1.61030       -2.57780
H          5.93140       -3.42910       -1.87200
H          4.29180       -3.64170       -1.21260
