53
Petroselinic_acid
C         -4.95440        3.32920       -5.48770
C         -4.45440        4.03630       -4.26300
C         -4.95440        3.32920       -3.03820
C         -4.45440        4.03630       -1.81350
C         -4.95440        3.32920       -0.58870
C         -4.45440        1.91500       -0.58870
C         -2.95440        1.91500       -0.58870
C         -2.45440        0.50080       -0.58870
C         -0.95440        0.50080       -0.58870
C         -0.45440       -0.91350       -0.58870
C          1.04560       -0.91350       -0.58870
C          1.54560       -0.20630        0.63600
C          1.77630       -0.87440        1.77520
C          1.54280       -2.35330        1.86650
C          2.82810       -3.04160        2.21910
C          3.85220       -2.76150        1.15940
C          5.13750       -3.44980        1.51190
C          5.63220       -2.93920        2.83280
O          5.29810       -3.48380        3.89550
O          6.38610       -1.95470        2.82740
H         -4.59110        3.84300       -6.37770
H         -4.59110        2.30150       -5.48770
H         -6.04440        3.32920       -5.48770
H         -4.81780        5.06400       -4.26300
H         -3.36440        4.03630       -4.26300
H         -6.04440        3.32920       -3.03820
H         -4.59110        2.30150       -3.03820
H         -4.81780        5.06400       -1.81350
H         -3.36440        4.03630       -1.81350
H         -4.59110        3.84300        0.30120
H         -6.04440        3.32920       -0.58870
H         -4.81780        1.40110       -1.47870
H         -4.81780        1.40110        0.30120
H         -2.59110        2.42880       -1.47870
H         -2.59110        2.42880        0.30120
H         -2.81780       -0.01310        0.30120
H         -2.81780       -0.01310       -1.47870
H         -0.59110        1.01460        0.30120
H         -0.59110        1.01460       -1.47870
H         -0.81780       -1.42730        0.30120
H         -0.81780       -1.42730       -1.47870
H          1.40890       -1.94110       -0.58870
H          1.40890       -0.39960       -1.47870
H          1.71370        0.85870        0.57020
H          2.13640       -0.36510        2.65720
H          0.79860       -2.55680        2.63650
H          1.18330       -2.72440        0.90670
H          2.65850       -4.11620        2.28540
H          3.18760       -2.67050        3.17880
H          4.02190       -1.68690        1.09300
H          3.49270       -3.13260        0.19960
H          5.88170       -3.24630        0.74190
H          4.96790       -4.52450        1.57830
