53
Petroselinic_acid
C         -5.10230        2.84130       -3.63800
C         -4.60230        3.54840       -2.41320
C         -5.10230        2.84130       -1.18850
C         -4.60230        1.42710       -1.18850
C         -5.10230        0.72000        0.03630
C         -4.60230       -0.69430        0.03630
C         -3.10230       -0.69430        0.03630
C         -2.60230       -2.10850        0.03630
C         -1.10230       -2.10850        0.03630
C         -0.60230       -3.52270        0.03630
C          0.89770       -3.52270        0.03630
C          1.39770       -2.81560        1.26100
C          2.56590       -2.15790        1.25210
C          3.41540       -2.10510        0.01700
C          3.59930       -0.67690       -0.40280
C          4.27210        0.08570        0.69980
C          4.45600        1.51400        0.28000
C          5.12880        2.27660        1.38260
O          5.86400        3.24410        1.13570
O          4.92590        1.90790        2.54900
H         -4.73900        3.35510       -4.52800
H         -4.73900        1.81360       -3.63800
H         -6.19230        2.84130       -3.63800
H         -4.96560        4.57600       -2.41320
H         -3.51230        3.54840       -2.41320
H         -4.73900        3.35510       -0.29850
H         -6.19230        2.84130       -1.18850
H         -3.51230        1.42710       -1.18850
H         -4.96560        0.91320       -2.07850
H         -4.73900        1.23380        0.92620
H         -6.19230        0.72000        0.03630
H         -4.96560       -1.20810       -0.85370
H         -4.96560       -1.20810        0.92620
H         -2.73900       -0.18040       -0.85370
H         -2.73900       -0.18040        0.92620
H         -2.96560       -2.62230        0.92620
H         -2.96560       -2.62230       -0.85370
H         -0.73900       -1.59460        0.92620
H         -0.73900       -1.59460       -0.85370
H         -0.96560       -4.03650        0.92620
H         -0.96560       -4.03650       -0.85370
H          1.26100       -4.55030        0.03630
H          1.26100       -3.00890       -0.85370
H          0.78590       -2.85360        2.15050
H          2.92600       -1.64860        2.13410
H          4.38810       -2.55060        0.22570
H          2.92650       -2.65930       -0.78430
H          2.62660       -0.23140       -0.61160
H          4.21660       -0.63850       -1.30030
H          5.24480       -0.35970        0.90860
H          3.65480        0.04740        1.59730
H          3.48330        1.95940        0.07120
H          5.07330        1.55230       -0.61750
