53
Petroselinic_acid
C         -4.07430        3.69920       -6.16240
C         -3.57430        4.40640       -4.93770
C         -4.07430        3.69920       -3.71290
C         -3.57430        4.40640       -2.48820
C         -4.07430        3.69920       -1.26340
C         -3.57430        2.28500       -1.26340
C         -2.07430        2.28500       -1.26340
C         -1.57430        0.87080       -1.26340
C         -0.07430        0.87080       -1.26340
C          0.42570       -0.54340       -1.26340
C         -0.07430       -1.25050       -0.03870
C          0.42570       -0.54340        1.18610
C          0.65640       -1.21140        2.32530
C          0.42290       -2.69040        2.41660
C          1.67850       -3.41900        2.03880
C          2.78400       -3.02860        2.97450
C          4.03950       -3.75730        2.59670
C          5.14500       -3.36690        3.53230
O          6.32740       -3.36020        3.15880
O          4.83800       -3.05110        4.69150
H         -3.71100        4.21310       -7.05240
H         -3.71100        2.67160       -6.16240
H         -5.16430        3.69920       -6.16240
H         -3.93760        5.43400       -4.93770
H         -2.48430        4.40640       -4.93770
H         -5.16430        3.69920       -3.71290
H         -3.71100        2.67160       -3.71290
H         -3.93760        5.43400       -2.48820
H         -2.48430        4.40640       -2.48820
H         -3.71100        4.21310       -0.37340
H         -5.16430        3.69920       -1.26340
H         -3.93760        1.77120       -2.15340
H         -3.93760        1.77120       -0.37340
H         -1.71100        2.79890       -2.15340
H         -1.71100        2.79890       -0.37340
H         -1.93760        0.35700       -0.37340
H         -1.93760        0.35700       -2.15340
H          0.28900        1.38460       -0.37340
H          0.28900        1.38460       -2.15340
H          0.06240       -1.05720       -2.15340
H          1.51570       -0.54340       -1.26340
H         -1.16430       -1.25050       -0.03870
H          0.28900       -2.27820       -0.03870
H          0.59380        0.52170        1.12030
H          1.01650       -0.70220        3.20730
H          0.14430       -2.95180        3.43740
H         -0.38040       -2.97400        1.73670
H          1.95710       -3.15750        1.01800
H          1.50880       -4.49370        2.10520
H          2.50530       -3.29010        3.99530
H          2.95360       -1.95390        2.90810
H          4.31810       -3.49580        1.57580
H          3.86980       -4.83200        2.66300
