55
Dihomo-gamma_linolenic_acid
C         -1.38940        7.36160       -5.19890
C         -1.01640        5.91450       -5.06920
C          0.07940        5.76950       -4.05520
C          0.45230        4.32240       -3.92540
C         -0.74540        3.53510       -3.48330
C         -1.22040        4.04990       -2.15690
C         -0.75100        3.54120       -1.00870
C          0.26610        2.43870       -1.00870
C         -0.43430        1.11220       -1.00870
C          0.25780       -0.03590       -1.00870
C          1.75780       -0.03590       -1.00870
C          2.25780       -1.45010       -1.00870
C          2.48850       -2.10260        0.13940
C          2.25500       -1.44230        1.46590
C          1.23090       -2.22000        2.23820
C          1.72560       -3.61910        2.45640
C          0.70150       -4.39680        3.22870
C         -0.58380       -4.43560        2.45640
C         -1.60790       -5.21330        3.22870
C         -1.84140       -4.55300        4.55510
O         -1.62800       -5.15650        5.61710
O         -2.25470       -3.38390        4.55510
H         -2.18570        7.46690       -5.93580
H         -0.51900        7.93370       -5.52020
H         -1.73450        7.73560       -4.23500
H         -1.88680        5.34230       -4.74790
H         -0.67130        5.54040       -6.03310
H          0.94970        6.34170       -4.37650
H         -0.26580        6.14360       -3.09130
H          0.79740        3.94830       -4.88930
H          1.24860        4.21710       -3.18860
H         -1.54170        3.64040       -4.22010
H         -0.47440        2.48350       -3.38900
H         -1.95290        4.84390       -2.15690
H         -1.09310        3.91190       -0.05340
H          0.89010        2.52000       -0.11870
H          0.89010        2.52000       -1.89870
H         -1.51460        1.11220       -1.00870
H         -0.24660       -0.99120       -1.00870
H          2.12110        0.47790       -1.89870
H          2.12110        0.47790       -0.11870
H          2.42590       -1.92570       -1.96400
H          2.84860       -3.12120        0.13940
H          3.18900       -1.41410        2.02710
H          1.89560       -0.42560        1.30730
H          0.29690       -2.24820        1.67700
H          1.06130       -1.74010        3.20210
H          1.89530       -4.09900        1.49250
H          2.65960       -3.59090        3.01760
H          0.53190       -3.91690        4.19260
H          1.06100       -5.41350        3.38730
H         -0.41410       -4.91550        1.49250
H         -0.94330       -3.41890        2.29780
H         -2.54190       -5.24150        2.66750
H         -1.24840       -6.23000        3.38730
