55
Dihomo-gamma_linolenic_acid
C         -2.27670        3.62350       -4.76500
C         -1.83020        4.46190       -3.60410
C         -2.20880        3.78220       -2.32160
C         -1.76220        4.62060       -1.16070
C         -2.14080        3.94090        0.12180
C         -3.62970        3.76640        0.17450
C         -4.18310        2.73750        0.83220
C         -3.33350        1.72350        1.53930
C         -4.03390        0.39710        1.53930
C         -3.34180       -0.75110        1.53930
C         -1.84180       -0.75110        1.53930
C         -1.34180       -1.45820        2.76410
C         -0.56990       -2.54990        2.66630
C         -0.17800       -3.10400        1.32860
C          1.10730       -2.47220        0.88270
C          2.18460       -2.77100        1.88270
C          3.46990       -2.13920        1.43690
C          3.86170       -2.69340        0.09920
C          5.14700       -2.06160       -0.34670
C          5.53890       -2.61570       -1.68440
O          6.73040       -2.70780       -2.01510
O          4.63250       -2.97860       -2.44880
H         -2.00160        4.11740       -5.69690
H         -3.35860        3.49670       -4.72670
H         -1.79450        2.64730       -4.71500
H         -0.74820        4.58870       -3.64240
H         -2.31240        5.43810       -3.65410
H         -3.29070        3.65540       -2.28330
H         -1.72650        2.80600       -2.27160
H         -0.68030        4.74740       -1.19900
H         -2.24450        5.59680       -1.21070
H         -1.65860        2.96470        0.17180
H         -1.81630        4.55010        0.96540
H         -4.24160        4.49660       -0.33470
H         -5.25540        2.61180        0.87020
H         -3.16390        2.04480        2.56700
H         -2.37690        1.62930        1.02550
H         -5.11420        0.39710        1.53930
H         -3.84620       -1.70630        1.53930
H         -1.47850       -1.26490        0.64940
H         -1.47850        0.27660        1.53930
H         -1.62400       -1.05910        3.72750
H         -0.20980       -3.05910        3.54840
H         -0.04440       -4.18290        1.40730
H         -0.96090       -2.88680        0.60190
H          0.97370       -1.39330        0.80410
H          1.39200       -2.87480       -0.08930
H          1.89990       -2.36840        2.85480
H          2.31820       -3.84990        1.96140
H          4.25280       -2.35640        2.16350
H          3.33630       -1.06030        1.35820
H          3.07890       -2.47620       -0.62750
H          3.99530       -3.77230        0.17780
H          5.01340       -0.98260       -0.42540
H          5.92990       -2.27870        0.37990
