55
Dihomo-gamma_linolenic_acid
C         -6.96620        1.80090        3.53890
C         -5.49120        1.99320        3.34500
C         -4.93400        2.77900        4.49480
C         -3.45910        2.97130        4.30090
C         -2.78460        1.63300        4.23620
C         -1.30970        1.82540        4.04230
C         -0.77630        1.89490        2.81430
C         -1.63510        1.78290        1.58950
C         -2.33550        0.45650        1.58950
C         -1.64330       -0.69170        1.58950
C         -0.14330       -0.69170        1.58950
C          0.35670       -1.91640        0.88240
C          1.52480       -1.90740        0.22470
C          2.37440       -0.67230        0.17200
C          3.61360       -0.95160       -0.62580
C          3.23110       -1.35520       -2.01890
C          4.47030       -1.63440       -2.81660
C          4.08780       -2.03800       -4.20970
C          3.31560       -0.92730       -4.85780
C          2.93310       -1.33090       -6.25100
O          2.28570       -0.56810       -6.98350
O          3.28530       -2.45220       -6.64620
H         -7.37110        1.22990        2.70340
H         -7.45630        2.77330        3.58590
H         -7.14290        1.25970        4.46840
H         -5.00110        1.02080        3.29800
H         -5.31450        2.53440        2.41550
H         -5.42410        3.75140        4.54180
H         -5.11070        2.23770        5.42430
H         -3.28240        3.51250        3.37140
H         -3.05410        3.54230        5.13640
H         -2.96130        1.09180        5.16570
H         -3.18950        1.06210        3.40070
H         -0.69120        1.90600        4.92430
H          0.28590        2.03340        2.67460
H         -1.01100        1.86430        0.69950
H         -2.37420        2.58410        1.58950
H         -3.41580        0.45650        1.58950
H         -2.14780       -1.64690        1.58950
H          0.22000        0.19830        1.07570
H          0.22000       -0.69170        2.61720
H         -0.25520       -2.80590        0.92040
H          1.88490       -2.78950       -0.28450
H          1.81330        0.13480       -0.29900
H          2.65230       -0.37910        1.18430
H          4.17470       -1.75870       -0.15480
H          4.23090       -0.05410       -0.66410
H          2.61370       -2.25270       -1.98060
H          2.67000       -0.54810       -2.48980
H          5.03140       -2.44150       -2.34560
H          5.08760       -0.73690       -2.85490
H          3.47040       -2.93550       -4.17140
H          4.98830       -2.24090       -4.78940
H          2.41510       -0.72440       -4.27820
H          3.93290       -0.02980       -4.89620
