55
Dihomo-gamma_linolenic_acid
C         -5.65400        4.19020        0.92430
C         -4.32300        4.56150        1.50780
C         -3.42880        5.08230        0.42190
C         -2.09770        5.45360        1.00530
C         -1.47100        4.24310        1.63150
C         -1.28130        3.18220        0.58820
C         -1.31910        1.88120        0.90930
C         -1.55250        1.43900        2.32350
C         -2.25290        0.11260        2.32350
C         -1.56080       -1.03560        2.32350
C         -0.06080       -1.03560        2.32350
C          0.43920       -2.44980        2.32350
C          1.60730       -2.77090        1.74940
C          2.45690       -1.72760        1.08620
C          3.69610       -2.36830        0.53500
C          3.31360       -3.41440       -0.46970
C          2.54140       -2.77650       -1.58630
C          2.15890       -3.82260       -2.59100
C          1.38670       -3.18480       -3.70770
C          2.23630       -2.14150       -4.37090
O          2.52430       -2.22070       -5.57440
O          2.64120       -1.19740       -3.67650
H         -6.30380        3.81170        1.71340
H         -5.51610        3.41920        0.16630
H         -6.10940        5.06980        0.46940
H         -4.46090        5.33240        2.26590
H         -3.86760        3.68190        1.96280
H         -3.29090        4.31140       -0.33620
H         -3.88420        5.96190       -0.03310
H         -1.44800        5.83210        0.21630
H         -2.23560        6.22460        1.76340
H         -0.50380        4.51300        2.05540
H         -2.12080        3.86470        2.42050
H         -1.11310        3.50060       -0.43030
H         -1.18240        1.11710        0.15800
H         -2.16990        2.17590        2.83730
H         -0.59590        1.34470        2.83730
H         -3.33320        0.11260        2.32350
H         -2.06520       -1.99090        2.32350
H          0.30250       -0.52170        1.43350
H          0.30250       -0.52170        3.21350
H         -0.17270       -3.20110        2.80120
H          1.96740       -3.78940        1.74940
H          1.89580       -1.26410        0.27480
H          2.73490       -0.96750        1.81630
H          4.25720       -2.83180        1.34640
H          4.31350       -1.61020        0.05300
H          4.21410       -3.88000       -0.87030
H          2.69620       -4.17250        0.01220
H          3.15880       -2.01850       -2.06830
H          1.64090       -2.31100       -1.18580
H          1.54150       -4.58070       -2.10910
H          3.05940       -4.28820       -2.99160
H          1.10880       -3.94500       -4.43770
H          0.48620       -2.71920       -3.30710
