55
Dihomo-gamma_linolenic_acid
C          1.25330        3.98050        0.37450
C          0.31960        3.60030        1.48520
C         -1.09090        3.91260        1.08160
C         -2.02460        3.53240        2.19230
C         -1.89780        2.06400        2.47150
C         -2.24790        1.28820        1.23640
C         -2.21170       -0.05200        1.22740
C         -1.81990       -0.82430        2.45220
C         -2.52030       -2.15070        2.45220
C         -1.82820       -3.29880        2.45220
C         -0.32820       -3.29880        2.45220
C          0.17180       -4.52360        1.74510
C          0.40250       -4.51460        0.42450
C          0.16910       -3.27950       -0.39410
C          1.45440       -2.85970       -1.04350
C          1.22090       -1.62470       -1.86200
C          2.50620       -1.20490       -2.51150
C          2.27270        0.03020       -3.33000
C          1.77810        1.13290       -2.44150
C          1.54460        2.36790       -3.26000
O          2.15550        3.42000       -3.02000
O          0.72080        2.30270       -4.18450
H          2.27830        3.75360        0.66770
H          1.16120        5.04750        0.17160
H          0.99890        3.41670       -0.52300
H          0.41180        2.53330        1.68810
H          0.57400        4.16410        2.38270
H         -1.18310        4.97950        0.87870
H         -1.34530        3.34870        0.18410
H         -1.77020        4.09620        3.08980
H         -3.04960        3.75920        1.89900
H         -0.87280        1.83720        2.76480
H         -2.57630        1.78780        3.27860
H         -2.53010        1.84440        0.35440
H         -2.46380       -0.61070        0.33790
H         -2.10460       -0.26310        3.34220
H         -0.74150       -0.98280        2.45220
H         -3.60060       -2.15070        2.45220
H         -2.33260       -4.25410        2.45220
H          0.03520       -2.40890        1.93840
H          0.03520       -3.29880        3.47990
H          0.34000       -5.41310        2.33460
H          0.76260       -5.39670       -0.08480
H         -0.57510       -3.48830       -1.16260
H         -0.19040       -2.47830        0.25160
H          1.81380       -3.66100       -1.68920
H          2.19850       -2.65100       -0.27490
H          0.47670       -1.83340       -2.63060
H          0.86140       -0.82340       -1.21640
H          2.86570       -2.00610       -3.15720
H          3.25040       -0.99610       -1.74290
H          1.52860       -0.17850       -4.09860
H          3.20670        0.33530       -3.80200
H          0.84410        0.82780       -1.96960
H          2.52220        1.34160       -1.67290
