55
Dihomo-gamma_linolenic_acid
C          3.73270        7.51730       -1.04100
C          3.74520        6.36050       -1.99580
C          2.35680        6.12250       -2.51120
C          1.44330        5.81280       -1.36250
C          0.05480        5.57480       -1.87790
C          0.06740        4.41800       -2.83260
C         -0.66510        3.31980       -2.59900
C         -1.52390        3.20780       -1.37420
C         -2.22430        1.88130       -1.37420
C         -1.53210        0.73320       -1.37420
C         -0.03210        0.73320       -1.37420
C          0.46790       -0.68100       -1.37420
C          0.15730       -1.52490       -0.37990
C         -0.70140       -1.08560        0.76880
C         -0.88210       -2.22830        1.72360
C          0.45690       -2.66570        2.23900
C          0.27620       -3.80840        3.19380
C         -0.38470       -4.95300        2.48440
C         -0.56540       -6.09570        3.43920
C         -1.22640       -7.24020        2.72990
O         -0.55560       -8.10880        2.15260
O         -2.46530       -7.28950        2.73960
H          4.74160        7.69020       -0.66650
H          3.06880        7.29230       -0.20630
H          3.37850        8.41000       -1.55650
H          4.40900        6.58550       -2.83050
H          4.09940        5.46780       -1.48030
H          2.00260        7.01520       -3.02660
H          2.36590        5.28190       -3.20500
H          1.79750        4.92010       -0.84700
H          1.43410        6.65340       -0.66870
H         -0.60900        5.34980       -1.04310
H         -0.29940        6.46750       -2.39330
H          0.68580        4.49860       -3.71470
H         -0.65610        2.48660       -3.28660
H         -2.26300        4.00890       -1.37420
H         -0.89980        3.28910       -0.48420
H         -3.30450        1.88130       -1.37420
H         -2.03660       -0.22210       -1.37420
H          0.33120        1.24700       -2.26420
H          0.33120        1.24700       -0.48420
H          1.08630       -0.99740       -2.20150
H          0.51740       -2.54340       -0.37990
H         -0.22110       -0.25390        1.28430
H         -1.67450       -0.76780        0.39430
H         -1.36240       -3.06000        1.20820
H         -1.50610       -1.90910        2.55830
H          1.08100       -2.98500        1.40430
H          0.93720       -1.83410        2.75450
H         -0.34780       -3.48920        4.02850
H          1.24930       -4.12630        3.56830
H          0.23930       -5.27220        1.64970
H         -1.35780       -4.63510        2.10990
H          0.40760       -6.41350        3.81380
H         -1.18940       -5.77650        4.27400
