54
15S-HETE
C          0.79200        5.01180       -5.21590
O          1.07110        4.69840       -6.50660
O          0.53120        6.14960       -4.84180
C          0.85940        3.76960       -4.37770
C         -0.47300        3.52940       -3.73180
C         -0.40570        2.28730       -2.89360
C          0.64120        2.45610       -1.83270
C          0.32590        2.38470       -0.53160
C         -1.08530        2.13340       -0.08950
C         -1.31880        2.79380        1.23690
C         -1.08800        2.14120        2.38510
C         -0.58800        0.72700        2.38510
C          0.91200        0.72700        2.38510
C          1.60410       -0.42110        2.38510
C          0.90370       -1.74760        2.38510
C          1.59580       -2.89570        2.38510
C          0.89540       -4.22210        2.38510
O          1.25590       -4.93270        3.51180
C         -0.58870       -4.00390        2.38510
C         -1.28910       -5.33040        2.38510
C         -0.89720       -6.10270        3.60980
C         -1.59760       -7.42910        3.60980
C         -3.08170       -7.21090        3.60980
H          1.18010       -4.78340        1.49510
H          1.02550        5.48700       -7.02270
H          1.11570        2.91880       -5.00900
H          1.62010        3.89230       -3.60680
H         -0.72930        4.38030       -3.10050
H         -1.23370        3.40680       -4.50270
H         -0.14930        1.43650       -3.52490
H         -1.37380        2.11280       -2.42430
H          1.65750        2.63710       -2.15110
H          1.07980        2.50630        0.23240
H         -1.25080        1.06020        0.00480
H         -1.77550        2.54420       -0.82640
H         -1.67880        3.81230        1.23690
H         -1.25620        2.61680        3.34040
H         -0.95140        0.21320        3.27510
H         -0.95140        0.21320        1.49510
H          1.41640        1.68230        2.38510
H          2.68440       -0.42110        2.38510
H         -0.17660       -1.74760        2.38510
H          2.67610       -2.89570        2.38510
H         -0.87340       -3.44270        3.27510
H         -0.87340       -3.44270        1.49510
H         -2.36750       -5.17180        2.38510
H         -1.00430       -5.89160        1.49510
H         -1.18200       -5.54150        4.49980
H          0.18120       -6.26130        3.60980
H         -1.31290       -7.99040        2.71980
H         -1.31290       -7.99040        4.49980
H         -3.59060       -8.17480        3.60980
H         -3.36640       -6.64970        4.49980
H         -3.36640       -6.64970        2.71980
