54
15S-HETE
C         -2.34140       -2.25450        5.15650
O         -1.78770       -1.89410        3.97080
O         -3.05250       -3.24350        5.29310
C         -1.94050       -1.26700        6.21200
C         -0.44600       -1.25130        6.34030
C          0.16420       -0.85600        5.02830
C         -0.31910        0.51090        4.64360
C         -0.44390        0.86410        3.35640
C         -0.10490       -0.09490        2.25390
C         -0.33840        0.56550        0.92750
C         -0.10770       -0.08710       -0.22070
C          0.39230       -1.50130       -0.22070
C          1.89230       -1.50130       -0.22070
C          2.58450       -0.92720       -1.21500
C          1.88410       -0.26400       -2.36370
C          2.57620        0.31010       -3.35810
C          1.87580        0.97330       -4.50680
O          2.23630        0.35280       -5.68550
C          0.39170        0.86420       -4.31780
C         -0.30870        1.52740       -5.46650
C          0.08320        2.97430       -5.52300
C         -0.61720        3.63750       -6.67170
C         -0.22540        5.08430       -6.72820
H          2.16050        2.02470       -4.54780
H         -2.04710       -2.52220        3.31620
H         -2.29170       -0.27370        5.93250
H         -2.38390       -1.55420        7.16540
H         -0.15470       -0.53370        7.10730
H         -0.09490       -2.24460        6.61980
H         -0.12710       -1.57350        4.26120
H          1.25020       -0.84460        5.12140
H         -0.56320        1.20150        5.43760
H         -0.79200        1.84850        3.07940
H         -0.73600       -0.97990        2.33530
H          0.94220       -0.38660        2.33530
H         -0.69850        1.58400        0.92750
H         -0.27580        0.38850       -1.17600
H          0.02900       -2.01510        0.66930
H          0.02900       -2.01510       -1.11070
H          2.39680       -1.97890        0.60660
H          3.66470       -0.92720       -1.21500
H          0.80380       -0.26400       -2.36370
H          3.65650        0.31010       -3.35800
H          0.10700       -0.18710       -4.27680
H          0.10700        1.35430       -3.38680
H         -0.02390        1.03730       -6.39760
H         -1.38710        1.44820       -5.32920
H          1.16160        3.05350       -5.66030
H         -0.20160        3.46440       -4.59200
H         -0.33250        3.14730       -7.60280
H         -1.69560        3.55820       -6.53440
H         -0.73440        5.56620       -7.56300
H         -0.51010        5.57440       -5.79720
H          0.85300        5.16360       -6.86550
