54
15S-HETE
C          1.17290        0.18280       -3.13610
O          1.76680       -1.00120       -2.83980
O          1.72100        1.06540       -3.78670
C         -0.20710        0.20660       -2.54880
C         -0.86650        1.51400       -2.87430
C         -2.24660        1.53780       -2.28690
C         -2.90600        2.84510       -2.61250
C         -3.31770        3.67330       -1.64200
C         -3.13380        3.32270       -0.19510
C         -2.28430        4.36600        0.46810
C         -1.11610        4.04490        1.04210
C         -0.61610        2.63070        1.04210
C          0.88390        2.63070        1.04210
C          1.57600        1.48250        1.04210
C          0.87560        0.15610        1.04210
C          1.56770       -0.99210        1.04210
C          0.86730       -2.31850        1.04210
O          1.22780       -3.02900       -0.08460
C          1.25920       -3.09080        2.26690
C          0.55880       -4.41730        2.26690
C          0.95060       -5.18960        3.49160
C          0.55880       -4.41730        4.71640
C         -0.92530       -4.19910        4.71640
H         -0.21110       -2.15990        1.04210
H          2.63290       -1.00360       -3.21430
H         -0.79430       -0.61070       -2.96740
H         -0.14350        0.09130       -1.46670
H         -0.27930        2.33130       -2.45570
H         -0.93020        1.62930       -3.95630
H         -2.18290        1.42250       -1.20490
H         -2.83380        0.72050       -2.70560
H         -3.03840        3.09760       -3.65450
H         -3.79260        4.61480       -1.87640
H         -2.64490        2.35180       -0.11590
H         -4.10650        3.28080        0.29500
H         -2.64430        5.38450        0.46810
H         -0.50420        4.79620        1.51980
H         -0.97940        2.11680        1.93210
H         -0.97940        2.11680        0.15220
H          1.38830        3.58590        1.04210
H          2.65630        1.48250        1.04210
H         -0.20470        0.15610        1.04210
H          2.64800       -0.99210        1.04210
H          2.33760       -3.24940        2.26690
H          0.97440       -2.52960        3.15690
H         -0.51960       -4.25870        2.26690
H          0.84350       -4.97850        1.37690
H          2.02900       -5.34810        3.49160
H          0.44160       -6.15350        3.49160
H          0.84350       -4.97850        5.60640
H          1.06770       -3.45340        4.71640
H         -1.21000       -3.63780        5.60640
H         -1.21000       -3.63780        3.82640
H         -1.43420       -5.16290        4.71640
