54
15S-HETE
C          3.15930        3.81310        4.55930
O          3.16840        3.01710        5.65870
O          4.16270        4.36290        4.11940
C          1.76430        3.88920        4.01310
C          1.55790        2.78940        3.01410
C          0.16290        2.86550        2.46790
C         -0.04060        4.19280        1.79940
C         -0.88510        4.32540        0.76670
C         -1.65720        3.15130        0.24210
C         -2.51600        3.59060       -0.90660
C         -2.82650        2.74670       -1.90090
C         -2.32650        1.33250       -1.90090
C         -0.82650        1.33250       -1.90090
C         -0.13440        0.18430       -1.90090
C         -0.83480       -1.14210       -1.90090
C         -0.14270       -2.29020       -1.90090
C         -0.84310       -3.61670       -1.90090
O         -2.05430       -3.49730       -2.55150
C          0.00650       -4.63070       -2.60800
C         -0.69390       -5.95710       -2.60800
C          0.15560       -6.97120       -3.31510
C         -0.54480       -8.29760       -3.31510
C         -1.86130       -8.16790       -4.02220
H         -1.01280       -3.93800       -0.87330
H          4.05010        2.97750        5.99220
H          1.04860        3.77910        4.82780
H          1.61650        4.85370        3.52730
H          2.27360        2.89940        2.19950
H          1.70570        1.82490        3.49990
H         -0.55280        2.75550        3.28260
H          0.01290        2.06630        1.74200
H          0.51560        5.03840        2.17730
H         -1.03160        5.28130        0.28530
H         -2.28830        2.74830        1.03420
H         -0.96330        2.38200       -0.09640
H         -2.87610        4.60910       -0.90660
H         -3.44500        3.06310       -2.72820
H         -2.68990        0.81870       -1.01090
H         -2.68990        0.81870       -2.79090
H         -0.32210        2.28780       -1.90090
H          0.94590        0.18430       -1.90090
H         -1.91510       -1.14210       -1.90090
H          0.93760       -2.29020       -1.90090
H          0.17610       -4.30940       -3.63570
H          0.96310       -4.72500       -2.09420
H         -0.86360       -6.27840       -1.58040
H         -1.65060       -5.86290       -3.12190
H          1.11230       -7.06540       -2.80130
H          0.32530       -6.64990       -4.34280
H          0.07260       -9.03450       -3.82900
H         -0.71440       -8.61890       -2.28750
H         -2.37020       -9.13170       -4.02220
H         -2.47860       -7.43100       -3.50840
H         -1.69160       -7.84660       -5.04990
