54
15S-HETE
C         -3.49190        1.78790        2.56020
O         -4.53910        1.62990        1.71140
O         -3.62540        1.99230        3.76150
C         -2.20860        1.67180        1.79230
C         -2.42310        2.14550        0.38530
C         -1.13980        2.02930       -0.38250
C         -0.08650        2.87190        0.27360
C          1.15630        2.93840       -0.22460
C          1.53890        2.17250       -1.45630
C          0.68010        2.61180       -2.60500
C          0.36960        1.76790       -3.59930
C          0.86960        0.35370       -3.59930
C          2.36960        0.35370       -3.59930
C          3.06170       -0.22040       -2.60500
C          2.36130       -0.88360       -1.45630
C          3.05340       -1.45770       -0.46200
C          2.35300       -2.12090        0.68680
O          2.71350       -1.50040        1.86550
C          0.86900       -2.01180        0.49780
C          0.16860       -2.67500        1.64650
C          0.56040       -4.12190        1.70300
C          0.16860       -4.79640        0.42180
C          0.56040       -6.24320        0.47820
H          2.63770       -3.17230        0.72780
H         -5.33920        1.70500        2.20590
H         -1.44320        2.28410        2.26910
H         -1.88550        0.63080        1.77990
H         -3.18850        1.53320       -0.09150
H         -2.74620        3.18640        0.39770
H         -1.29570        2.37350       -1.40490
H         -0.81680        0.98830       -0.39490
H         -0.36200        3.42350        1.16070
H          1.91490        3.54520        0.24800
H          1.39380        1.10650       -1.28100
H          2.58590        2.36280       -1.69190
H          0.32000        3.63030       -2.60500
H         -0.24890        2.08420       -4.42660
H          0.50620       -0.16020       -2.70940
H          0.50620       -0.16020       -4.48930
H          2.87400        0.83130       -4.42660
H          4.14200       -0.22040       -2.60500
H          1.28100       -0.88360       -1.45630
H          4.13370       -1.45770       -0.46200
H          0.58420       -0.96050        0.45680
H          0.58420       -2.50200       -0.43320
H          0.45330       -2.18490        2.57750
H         -0.90980       -2.59580        1.50920
H          0.05140       -4.60380        2.53770
H          1.63880       -4.20110        1.84030
H         -0.90980       -4.71710        0.28450
H          0.67750       -4.31440       -0.41300
H          0.27570       -6.73330       -0.45280
H          1.63880       -6.32250        0.61560
H          0.05140       -6.72510        1.31300
