54
15S-HETE
C         -3.51190        3.95830       -0.99100
O         -2.17750        3.78130       -0.81720
O         -4.12100        4.93460       -0.56840
C         -4.07130        2.79610       -1.75680
C         -3.82860        1.52940       -0.99100
C         -4.38800        0.36720       -1.75680
C         -3.71500        0.27940       -3.09450
C         -2.38920        0.10660       -3.19230
C         -1.53040       -0.00540       -1.96750
C         -0.51330        1.09710       -1.96750
C          0.79990        0.82730       -1.96750
C          1.29990       -0.58690       -1.96750
C          2.79990       -0.58690       -1.96750
C          3.49200       -0.58690       -0.81940
C          2.79160       -0.58690        0.50710
C          3.48370       -0.58690        1.65520
C          2.78330       -0.58690        2.98170
O          1.41800       -0.58690        2.78090
C          3.17510       -1.81170        3.75400
C          2.78330       -3.03640        2.98170
C          3.17510       -4.26120        3.75400
C          2.78330       -5.48590        2.98170
C          1.29930       -5.48590        2.76350
H          3.06800        0.30300        3.54290
H         -1.83820        4.51790       -0.33490
H         -5.14300        2.93590       -1.89770
H         -3.58220        2.73240       -2.72880
H         -2.75680        1.38960       -0.85000
H         -4.31760        1.59310       -0.01890
H         -5.45970        0.50690       -1.89770
H         -4.21170       -0.55330       -1.20030
H         -4.33350        0.36010       -3.97650
H         -1.90450        0.04340       -4.15560
H         -1.02150       -0.96930       -1.96750
H         -2.15450        0.07600       -1.07750
H         -0.87340        2.11560       -1.96750
H          1.53240        1.62130       -1.96750
H          0.93650       -1.10080       -1.07750
H          0.93650       -1.10080       -2.85750
H          3.30430       -0.58690       -2.92280
H          4.57230       -0.58690       -0.81940
H          1.71130       -0.58690        0.50710
H          4.56400       -0.58690        1.65520
H          4.25350       -1.81170        3.91250
H          2.66620       -1.81170        4.71790
H          1.70490       -3.03640        2.82310
H          3.29230       -3.03640        2.01780
H          2.66620       -4.26120        4.71790
H          4.25350       -4.26120        3.91250
H          3.29230       -5.48590        2.01780
H          3.06800       -6.37590        3.54290
H          1.01450       -6.37590        2.20220
H          0.79030       -5.48590        3.72730
H          1.01450       -4.59590        2.20220
