54
15S-HETE
C          0.51320       -3.25990        1.08850
O          1.35390       -2.22420        1.33910
O          0.89710       -4.36040        0.70890
C         -0.89910       -2.82730        1.34980
C         -1.24260       -1.67410        0.45420
C         -2.65490       -1.24150        0.71550
C         -2.79160       -0.81960        2.14840
C         -2.57890        0.45100        2.51910
C         -2.19630        1.49710        1.51440
C         -1.34680        2.54040        2.17760
C         -0.17860        2.21930        2.75170
C          0.32140        0.80510        2.75170
C          1.82140        0.80510        2.75170
C          2.51350        0.80510        1.60360
C          1.81310        0.80510        0.27710
C          2.50520        0.80510       -0.87100
C          1.80480        0.80510       -2.19740
O          1.01480       -0.32170       -2.30050
C          0.94610        2.02980       -2.30940
C          0.24570        2.02980       -3.63590
C         -0.61310        0.80510       -3.74780
C         -1.31350        0.80510       -5.07430
C         -2.17220        2.02980       -5.18630
H          2.54390        0.80510       -2.99860
H          2.23770       -2.50880        1.17120
H         -1.57640       -3.65740        1.14930
H         -0.99840       -2.52070        2.39110
H         -0.56540       -0.84400        0.65470
H         -1.14330       -1.98070       -0.58710
H         -3.33220       -2.07170        0.51490
H         -2.90460       -0.40360        0.06460
H         -3.06710       -1.57300        2.87200
H         -2.67730        0.75490        3.55110
H         -3.09680        1.96270        1.11390
H         -1.63520        1.03360        0.70300
H         -1.70690        3.55890        2.17760
H          0.43320        2.97060        3.22940
H         -0.04200        0.29120        3.64170
H         -0.04200        0.29120        1.86170
H          2.32580        0.80510        3.70700
H          3.59380        0.80510        1.60360
H          0.73280        0.80510        0.27710
H          3.58550        0.80510       -0.87100
H          0.20700        2.02980       -1.50830
H          1.57010        2.91980       -2.22810
H         -0.37840        2.91980       -3.71720
H          0.98480        2.02980       -4.43700
H         -1.35220        0.80510       -2.94670
H          0.01090       -0.08490       -3.66650
H         -0.57440        0.80510       -5.87540
H         -1.93750       -0.08490       -5.15560
H         -2.68120        2.02980       -6.15010
H         -2.91140        2.02980       -4.38510
H         -1.54820        2.91980       -5.10490
