54
15S-HETE
C         -2.83280        2.28200       -3.45350
O         -2.79770        0.98150       -3.84050
O         -1.83560        2.99250       -3.39390
C         -4.24620        2.66560       -3.12960
C         -4.32920        3.10650       -1.69830
C         -3.89860        1.98250       -0.80310
C         -3.98150        2.42340        0.62820
C         -2.89470        2.43470        1.41310
C         -1.55620        2.00680        0.88850
C         -1.16440        2.88830       -0.26030
C         -0.39240        2.42710       -1.25460
C          0.10760        1.01290       -1.25460
C          1.60760        1.01290       -1.25460
C          2.29970        0.01860       -0.68050
C          1.59930       -1.13020       -0.01730
C          2.29140       -2.12450        0.55680
C          1.59100       -3.27320        1.22000
O          1.95150       -4.45200        0.59940
C          1.98280       -3.32970        2.66680
C          3.46690       -3.51870        2.77590
C          3.85870       -3.57510        4.22270
C          5.34270       -3.76410        4.33180
C          5.73460       -3.82060        5.77860
H          0.51260       -3.13590        1.14070
H         -1.90450        0.75290       -4.04110
H         -4.55920        3.48230       -3.78010
H         -4.90010        1.80730       -3.28390
H         -3.67530        3.96480       -1.54400
H         -5.35640        3.38530       -1.46290
H         -2.87140        1.70380       -1.03850
H         -4.55240        1.12420       -0.95740
H         -4.94560        2.73150        1.00600
H         -2.95450        2.75220        2.44390
H         -1.61240        0.97230        0.54990
H         -0.81200        2.09000        1.68050
H         -1.52450        3.90680       -0.26030
H         -0.11020        3.06190       -2.08190
H         -0.25570        0.49900       -0.36460
H         -0.25570        0.49900       -2.14460
H          2.11200        1.84020       -1.73220
H          3.38000        0.01860       -0.68050
H          0.51900       -1.13020       -0.01730
H          3.37170       -2.12450        0.55680
H          1.69810       -2.39870        3.15690
H          1.47390       -4.16440        3.14870
H          3.75160       -4.44970        2.28580
H          3.97580       -2.68390        2.29400
H          3.34970       -4.40990        4.70470
H          3.57400       -2.64410        4.71290
H          5.62750       -4.69510        3.84170
H          5.85170       -2.92940        3.84990
H          6.81300       -3.95790        5.85790
H          5.44980       -2.88960        6.26880
H          5.22560       -4.65530        6.26060
