54
15S-HETE
C         -2.04920       -0.20690        2.60090
O         -2.90230        0.54540        3.34140
O         -1.38550       -1.12590        3.06740
C         -2.07020        0.27250        1.17970
C         -1.02890        1.33630        0.99540
C         -1.04990        1.81570       -0.42580
C         -2.40300        2.38010       -0.74310
C         -2.90090        2.32670       -1.98670
C         -2.12310        1.70060       -3.10610
C         -1.27350        2.74390       -3.76930
C         -0.10540        2.42280       -4.34340
C          0.39460        1.00860       -4.34340
C          1.89460        1.00860       -4.34340
C          2.58670        0.43450       -3.34910
C          1.88630       -0.22870       -2.20030
C          2.57850       -0.80280       -1.20600
C          1.87810       -1.46600       -0.05730
O          2.23850       -2.79710       -0.00530
C          2.26990       -0.79150        1.22390
C          1.56950       -1.45470        2.37270
C          1.96130       -2.90150        2.42910
C          1.26090       -3.56480        3.57790
C          1.65270       -2.89030        4.85910
H          0.79970       -1.38670       -0.19460
H         -2.87990        0.23430        4.23190
H         -1.85900       -0.56230        0.51150
H         -3.05340        0.68270        0.94910
H         -1.24010        2.17120        1.66360
H         -0.04570        0.92620        1.22590
H         -0.83870        0.98080       -1.09400
H         -0.29320        2.58870       -0.55980
H         -2.96310        2.83100        0.06300
H         -3.87530        2.73320       -2.21520
H         -2.81330        1.27670       -3.83540
H         -1.48500        0.91150       -2.70820
H         -1.63360        3.76240       -3.76930
H          0.50650        3.17410       -4.82100
H          0.03130        0.49470       -3.45340
H          0.03130        0.49470       -5.23340
H          2.39910        1.48620       -5.17070
H          3.66700        0.43450       -3.34910
H          0.80610       -0.22870       -2.20030
H          3.65880       -0.80280       -1.20600
H          3.34830       -0.87080        1.36130
H          1.98520        0.25990        1.18290
H          1.85420       -0.96460        3.30370
H          0.49110       -1.37540        2.23530
H          3.03970       -2.98080        2.56650
H          1.67660       -3.39170        1.49810
H          0.18250       -3.48550        3.44050
H          1.54560       -4.61610        3.61890
H          1.14380       -3.37220        5.69380
H          2.73110       -2.96950        4.99640
H          1.36800       -1.83890        4.81800
