54
15S-HETE
C         -6.41710       -1.41110       -0.03760
O         -6.90810       -2.00060       -1.15730
O         -6.69730       -1.78370        1.09610
C         -5.51510       -0.27800       -0.42800
C         -4.87400       -0.58180       -1.74960
C         -4.07140       -1.84400       -1.63760
C         -3.00780       -1.66930       -0.59430
C         -1.79380       -1.20000       -0.91540
C         -1.45480       -0.83250       -2.32960
C         -0.43760        0.27000       -2.32970
C          0.87550        0.00020       -2.32970
C          1.37550       -1.41400       -2.32970
C          2.87550       -1.41400       -2.32970
C          3.56770       -0.84000       -1.33530
C          2.86730       -0.17670       -0.18660
C          3.55940        0.39730        0.80770
C          2.85900        1.06060        1.95650
O          2.06890        0.13630        2.60900
C          3.87610        1.61180        2.91120
C          4.73480        2.61650        2.20190
C          5.75190        3.16770        3.15670
C          6.61070        4.17240        2.44730
C          7.62780        4.72360        3.40210
H          2.23490        1.87200        1.58190
H         -7.47310       -2.71070       -0.89850
H         -6.09840        0.63920       -0.50950
H         -4.74230       -0.15100        0.33010
H         -5.64680       -0.70880       -2.50770
H         -4.21850        0.24160       -2.03330
H         -3.60550       -2.06480       -2.59800
H         -4.72680       -2.66740       -1.35390
H         -3.25200       -1.93400        0.42420
H         -1.02780       -1.07410       -0.16410
H         -2.35530       -0.49610       -2.84350
H         -1.04700       -1.70300       -2.84350
H         -0.79770        1.28850       -2.32970
H          1.60810        0.79420       -2.32970
H          1.01220       -1.92790       -1.43970
H          1.01220       -1.92790       -3.21960
H          3.38000       -1.89170       -3.15700
H          4.64790       -0.84000       -1.33530
H          1.78700       -0.17670       -0.18660
H          4.63970        0.39730        0.80770
H          3.36710        2.09370        3.74600
H          4.50010        0.80040        3.28580
H          5.24380        2.13450        1.36710
H          4.11080        3.42790        1.82740
H          6.37600        2.35630        3.53120
H          5.24300        3.64970        3.99140
H          7.11970        3.69050        1.61260
H          5.98670        4.98380        2.07280
H          8.25180        5.45370        2.88670
H          7.11890        5.20560        4.23690
H          8.25180        3.91220        3.77660
