54
5-HETE
C          3.19310        6.33570        1.93390
O          3.94820        6.59170        0.98430
O          3.02240        7.14970        2.85360
C          2.49270        5.00920        1.93390
C          1.17620        5.13900        1.22680
C          0.47580        3.81250        1.22680
C         -0.84070        3.94220        0.51970
O         -1.62230        4.87510        1.17030
C         -1.54110        2.61580        0.51970
C         -0.84900        1.46770        0.51970
C         -1.54940        0.14120        0.51970
C         -0.85730       -1.00690        0.51970
C          0.64270       -1.00690        0.51970
C          1.14270       -1.71400       -0.70500
C          1.37340       -3.03460       -0.69610
C          1.13990       -3.85320        0.53900
C         -0.27120       -4.36170        0.54250
C         -0.72540       -5.14950       -0.44260
C          0.16100       -5.55100       -1.58410
C         -0.60680       -6.42700       -2.52920
C         -1.79210       -5.67450       -3.05730
C         -2.55990       -6.55050       -4.00240
C         -3.02880       -7.77730       -3.27790
H         -0.67110        4.26350       -0.50800
H          2.32300        4.68790        2.96160
H          3.11000        4.27240        1.42010
H          0.55880        5.87580        1.74060
H          1.34580        5.46020        0.19920
H          1.09310        3.07570        0.71300
H          0.30610        3.49120        2.25450
H         -2.52390        5.02740        0.76530
H         -2.62140        2.61580        0.51970
H          0.23130        1.46770        0.51970
H         -2.62970        0.14120        0.51970
H         -1.36170       -1.96220        0.51970
H          1.00600       -1.52070        1.40970
H          1.00600        0.02070        0.51970
H          1.31080       -1.12450       -1.59450
H          1.73350       -3.54390       -1.57810
H          1.30550       -3.23490        1.42130
H          1.83020       -4.69670        0.55170
H         -0.90960       -4.07250        1.36460
H         -1.74170       -5.51570       -0.44010
H          0.50170       -4.65950       -2.11060
H          1.02230       -6.09780       -1.20040
H         -0.94750       -7.31850       -2.00280
H          0.03730       -6.71880       -3.35870
H         -2.43620       -5.38270       -2.22780
H         -1.45130       -4.78300       -3.58380
H         -1.91570       -6.84220       -4.83190
H         -3.42120       -6.00370       -4.38610
H         -3.67290       -7.48560       -2.44840
H         -3.58670       -8.41390       -3.96470
H         -2.16750       -8.32410       -2.89420
