54
5-HETE
C         -3.34810        4.15410        5.30450
O         -4.37750        3.89490        4.66370
O         -3.40510        4.50900        6.49120
C         -2.03160        4.02440        4.59740
C         -2.26500        3.58220        3.18320
C         -0.94850        3.45250        2.47610
C         -1.18200        3.01040        1.06180
O         -1.96360        3.94330        0.41130
C         -1.88240        1.68390        1.06180
C         -1.19030        0.53580        1.06180
C         -1.89070       -0.79070        1.06180
C         -1.19860       -1.93880        1.06180
C          0.30140       -1.93880        1.06180
C          0.80140       -3.35300        1.06180
C          1.57340       -3.81420        0.06750
C          1.96520       -2.93280       -1.08120
C          1.45990       -3.52700       -2.36240
C          2.11100       -3.33520       -3.51850
C          3.36850       -2.51930       -3.57290
C          3.87500       -2.47470       -4.98410
C          4.16280       -3.86900       -5.45630
C          4.66920       -3.82450       -6.86750
C          3.63030       -3.20150       -7.75210
H         -0.22530        2.91610        0.54800
H         -1.41420        3.28750        5.11120
H         -1.52260        4.98830        4.59740
H         -2.77400        2.61840        3.18320
H         -2.88240        4.31910        2.66930
H         -0.43960        4.41640        2.47610
H         -0.33120        2.71560        2.98990
H         -2.23480        4.72890        0.96730
H         -2.96270        1.68390        1.06180
H         -0.11000        0.53580        1.06180
H         -2.97100       -0.79070        1.06180
H         -1.70300       -2.89410        1.06180
H          0.66480       -1.42500        1.95180
H          0.66480       -1.42500        0.17190
H          0.51920       -3.98780        1.88920
H          1.93350       -4.83270        0.06750
H          3.05130       -2.85080       -1.12220
H          1.53100       -1.94250       -0.94390
H          0.55420       -4.11460       -2.32330
H          1.74710       -3.76310       -4.44120
H          3.15930       -1.50610       -3.22980
H          4.12340       -2.97200       -2.93010
H          4.78880       -1.88180       -5.02360
H          3.12000       -2.02200       -5.62690
H          4.91770       -4.32180       -4.81350
H          3.24900       -4.46190       -5.41680
H          4.87840       -4.83770       -7.21070
H          5.58300       -3.23160       -6.90700
H          3.42120       -2.18820       -7.40900
H          3.99840       -3.16910       -8.77760
H          2.71650       -3.79430       -7.71260
