54
5-HETE
C          1.07270        2.28790       -1.47370
O          1.81870        2.68820       -0.56770
O          1.03040        1.08840       -1.78500
C          0.22320        3.30200       -2.18080
C         -1.09330        3.43170       -1.47370
C         -0.85990        3.87380       -0.05950
C         -2.17640        4.00360        0.64760
O         -1.96160        4.41030        1.94870
C         -2.87680        2.67710        0.64760
C         -2.18460        1.52900        0.64760
C         -2.88500        0.20260        0.64760
C         -2.19290       -0.94560        0.64760
C         -0.69290       -0.94560        0.64760
C         -0.19290       -0.94560       -0.76660
C          1.12030       -0.94560       -1.03640
C          2.13740       -0.94560        0.06610
C          3.37660       -1.65270       -0.39690
C          3.52640       -2.97330       -0.22120
C          2.46040       -3.79180        0.44460
C          1.97710       -4.84950       -0.50290
C          0.91100       -5.66810        0.16300
C         -0.23480       -4.77950        0.54710
C         -1.30090       -5.59810        1.21300
H         -2.79370        4.74040        0.13380
H          0.05350        2.98070       -3.20850
H          0.73210        4.26580       -2.18080
H         -1.71070        4.16860       -1.98750
H         -1.60230        2.46780       -1.47370
H         -0.24250        3.13700        0.45440
H         -0.35090        4.83770       -0.05950
H         -1.00220        4.54620        2.19610
H         -3.95700        2.67710        0.64760
H         -1.10430        1.52900        0.64760
H         -3.96530        0.20260        0.64760
H         -2.69730       -1.90090        0.64760
H         -0.32960       -1.83560        1.16150
H         -0.32960       -0.05560        1.16150
H         -0.92540       -0.94560       -1.56060
H          1.48040       -0.94560       -2.05490
H          1.72960       -1.45940        0.93660
H          2.38370        0.08210        0.33310
H          4.14440       -1.06320       -0.87640
H          4.41890       -3.48250       -0.55470
H          2.86950       -4.26380        1.33800
H          1.62770       -3.14620        0.72370
H          2.80980       -5.49520       -0.78200
H          1.56800       -4.37760       -1.39620
H          0.55990       -6.43670       -0.52550
H          1.32010       -6.14000        1.05630
H         -0.64390       -4.30760       -0.34620
H          0.11630       -4.01090        1.23560
H         -0.89180       -6.07000        2.10630
H         -2.13360       -4.95240        1.49210
H         -1.65210       -6.36670        0.52440
