54
5-HETE
C          0.10590        5.50590        3.67740
O          0.37620        6.01790        2.58080
O          0.40480        6.07200        4.73930
C         -0.59450        4.17950        3.67740
C         -0.20270        3.40720        2.45260
C         -0.90310        2.08070        2.45260
C         -0.51130        1.30840        1.22790
O         -0.87180        2.01900        0.10110
C         -1.21170       -0.01800        1.22790
C         -0.51960       -1.16620        1.22790
C         -1.22000       -2.49260        1.22790
C         -0.52790       -3.64070        1.22790
C          0.97210       -3.64070        1.22790
C          1.47210       -4.86550        0.52080
C          1.70280       -4.85650       -0.79980
C          1.46940       -3.62140       -1.61840
C          1.08590       -4.01220       -3.01490
C          0.82320       -3.08400       -3.94590
C          0.90320       -1.62100       -3.62500
C         -0.07130       -0.86730       -4.48080
C          0.00860        0.59570       -4.15980
C         -0.32670        0.80940       -2.71350
C         -1.71650        0.31360       -2.44390
H          0.56710        1.14990        1.22790
H         -1.67290        4.33810        3.67740
H         -0.30980        3.61830        4.56730
H         -0.48740        3.96840        1.56260
H          0.87570        3.24860        2.45260
H         -0.61840        1.51950        3.34260
H         -1.98150        2.23930        2.45260
H         -0.64740        1.57660       -0.76720
H         -2.29200       -0.01800        1.22790
H          0.56070       -1.16620        1.22790
H         -2.30030       -2.49260        1.22790
H         -1.03230       -4.59600        1.22790
H          1.33550       -3.64070        2.25550
H          1.33550       -2.75080        0.71400
H          1.64030       -5.75500        1.11030
H          2.06290       -5.73860       -1.30910
H          2.38170       -3.02560       -1.64540
H          0.66610       -3.03580       -1.17140
H          1.02830       -5.06590       -3.24600
H          0.54700       -3.36550       -4.95160
H          0.65950       -1.46570       -2.57390
H          1.91310       -1.26070       -3.82090
H         -1.08120       -1.22760       -4.28490
H          0.17230       -1.02260       -5.53180
H          1.01860        0.95600       -4.35570
H         -0.69950        1.14340       -4.78170
H         -0.26850        1.87260       -2.48030
H          0.38150        0.26180       -2.09160
H         -1.77460       -0.74950       -2.67710
H         -1.96010        0.46890       -1.39290
H         -2.42460        0.86130       -3.06580
