54
5-HETE
C         -0.85810        6.10750       -2.86740
O         -1.43090        5.02270       -3.04780
O         -0.49020        6.80420       -3.82500
C         -0.62460        6.54970       -1.45320
C          0.22490        5.53570       -0.74610
C         -0.47550        4.20920       -0.74610
C         -1.79200        4.33900       -0.03900
O         -1.57720        4.74570        1.26210
C         -2.49240        3.01250       -0.03900
C         -1.80030        1.86440       -0.03900
C         -2.50070        0.53790       -0.03900
C         -1.80850       -0.61020       -0.03900
C         -0.30850       -0.61020       -0.03900
C          0.19150       -1.31730        1.18570
C          0.42220       -2.63790        1.17680
C          0.18870       -3.45650       -0.05830
C         -0.19480       -4.85300        0.33250
C          0.62960       -5.61880        1.06130
C          1.96540       -5.10700        1.51260
C          3.04980       -5.98140        0.95610
C          2.86070       -7.38610        1.44700
C          3.94510       -8.26040        0.89060
C          5.28090       -7.74870        1.34180
H         -2.40930        5.07580       -0.55280
H         -1.58130        6.64400       -0.93940
H         -0.11570        7.51360       -1.45320
H          1.18160        5.44140       -1.25990
H          0.39460        5.85700        0.28150
H         -0.64510        3.88790       -1.77380
H          0.14190        3.47240       -0.23230
H         -2.40500        4.85900        1.81160
H         -3.57270        3.01250       -0.03900
H         -0.72000        1.86440       -0.03900
H         -3.58090        0.53790       -0.03900
H         -2.31300       -1.56550       -0.03900
H          0.05480        0.41750       -0.03900
H          0.05480       -1.12400       -0.92900
H          0.35960       -0.72780        2.07520
H          0.78230       -3.14720        2.05880
H          1.10100       -3.48350       -0.65410
H         -0.61460       -3.00950       -0.64400
H         -1.15680       -5.22150        0.00750
H          0.35340       -6.62450        1.34280
H          2.10280       -4.08630        1.15590
H          2.01070       -5.12060        2.60160
H          4.02050       -5.60950        1.28410
H          3.00450       -5.96780       -0.13280
H          2.90600       -7.39960        2.53600
H          1.89000       -7.75800        1.11910
H          3.89980       -8.24690       -0.19840
H          3.80760       -9.28120        1.24730
H          5.32620       -7.76220        2.43080
H          6.06890       -8.38400        0.93750
H          5.41830       -6.72790        0.98510
