54
5-HETE
C         -0.39270        1.71730        1.35530
O         -1.08120        1.86260        2.37630
O          0.58780        0.95830        1.34700
C         -0.78450        2.48970        0.13050
C         -2.26860        2.70790        0.13050
C         -2.66040        3.48020       -1.09420
C         -2.26860        2.70790       -2.31900
O         -2.62900        3.41840       -3.44570
C         -2.96900        1.38140       -2.31900
C         -2.27690        0.23330       -2.31900
C         -2.97730       -1.09320       -2.31900
C         -2.28510       -2.24130       -2.31900
C         -0.78510       -2.24130       -2.31900
C         -0.28510       -3.46600       -1.61190
C          0.88300       -3.45710       -0.95420
C          1.73260       -2.22200       -0.90140
C          1.34910       -1.40200        0.29470
C          1.94830       -1.58460        1.47990
C          3.02410       -2.61550        1.65320
C          3.50940       -2.59820        3.07240
C          4.06060       -1.24110        3.39580
C          4.54580       -1.22380        4.81500
C          5.09700        0.13330        5.13840
H         -1.19020        2.54930       -2.31900
H         -0.49980        1.92840       -0.75950
H         -0.27560        3.45350        0.13050
H         -2.77750        1.74400        0.13050
H         -2.55330        3.26910        1.02050
H         -3.73880        3.63870       -1.09420
H         -2.15140        4.44410       -1.09420
H         -3.07420        4.29590       -3.26760
H         -4.04930        1.38140       -2.31900
H         -1.19660        0.23330       -2.31900
H         -4.05750       -1.09320       -2.31900
H         -2.78960       -3.19660       -2.31900
H         -0.42180       -1.35130       -1.80510
H         -0.42180       -2.24130       -3.34660
H         -0.89700       -4.35550       -1.64990
H          1.24310       -4.33910       -0.44490
H          1.57900       -1.63630       -1.80780
H          2.78220       -2.50600       -0.82590
H          0.57440       -0.65960        0.16990
H          1.67220       -0.99410        2.34130
H          2.62350       -3.60170        1.41820
H          3.85370       -2.39110        0.98270
H          4.29110       -3.34730        3.19830
H          2.67970       -2.82260        3.74280
H          4.89020       -1.01670        2.72540
H          3.27880       -0.49200        3.26990
H          5.32750       -1.97290        4.94090
H          3.71620       -1.44820        5.48540
H          4.31530        0.88240        5.01250
H          5.44970        0.14590        6.16970
H          5.92670        0.35770        4.46800
