54
5-HETE
C         -3.70930        5.22740       -0.28530
O         -2.89650        5.59250       -1.14770
O         -4.68330        4.51990       -0.58230
C         -3.47580        5.66960        1.12890
C         -2.62630        4.65550        1.83610
C         -1.30980        4.52580        1.12890
C         -0.46020        3.51180        1.83610
O          0.75100        3.39240        1.18550
C         -1.16060        2.18540        1.83610
C         -0.46850        1.03720        1.83610
C         -1.16890       -0.28920        1.83610
C         -0.47680       -1.43740        1.83610
C          1.02320       -1.43740        1.83610
C          1.52320       -2.85160        1.83610
C          1.21270       -3.69550        0.84170
C          0.35400       -3.25620       -0.30700
C          1.01490       -2.11170       -1.01630
C          2.22810       -2.24840       -1.57010
C          2.96880       -3.55100       -1.50050
C          2.61560       -4.39130       -2.69180
C          3.35620       -5.69380       -2.62220
C          3.00300       -6.53410       -3.81350
C          1.52640       -6.79820       -3.81900
H         -0.29050        3.83310        2.86370
H         -4.43250        5.76380        1.64280
H         -2.96690        6.63340        1.12890
H         -2.45660        4.97680        2.86370
H         -3.13520        3.69170        1.83610
H         -1.47940        4.20450        0.10130
H         -0.80080        5.48970        1.12890
H          0.85870        3.97800        0.38210
H         -2.24090        2.18540        1.83610
H          0.61180        1.03720        1.83610
H         -2.24920       -0.28920        1.83610
H         -0.98120       -2.39270        1.83610
H          1.38660       -0.92350        2.72600
H          1.38660       -0.92350        0.94610
H          2.14170       -3.16790        2.66340
H          1.57280       -4.71400        0.84170
H         -0.61910       -2.93830        0.06750
H          0.22270       -4.08660       -1.00080
H          0.48150       -1.17360       -1.06640
H          2.70420       -1.42410       -2.08100
H          4.04180       -3.35900       -1.49660
H          2.69070       -4.07880       -0.58830
H          2.89360       -3.86340       -3.60410
H          1.54260       -4.58320       -2.69580
H          4.42920       -5.50190       -2.61830
H          3.07810       -6.22160       -1.71000
H          3.54120       -7.48060       -3.76290
H          3.28100       -6.00630       -4.72570
H          0.98820       -5.85170       -3.86950
H          1.26970       -7.40880       -4.68460
H          1.24830       -7.32600       -2.90670
