54
5-HETE
C         -3.37920        3.24670        2.79140
O         -4.37220        2.54030        3.02070
O         -2.60450        3.57680        3.70150
C         -3.14580        3.68890        1.37720
C         -2.29620        2.67480        0.67010
C         -2.06280        3.11700       -0.74420
C         -1.21320        2.10300       -1.45130
O         -0.99840        2.50970       -2.75230
C         -1.91360        0.77650       -1.45130
C         -1.22150       -0.37160       -1.45130
C         -1.92190       -1.69810       -1.45130
C         -1.22980       -2.84620       -1.45130
C          0.27020       -2.84620       -1.45130
C          0.77020       -3.55330       -2.67600
C          2.08340       -3.68820       -2.90970
C          3.10050       -3.13700       -1.95490
C          2.91990       -1.65280       -1.83380
C          2.64090       -1.08370       -0.65250
C          2.49930       -1.91030        0.59120
C          2.91580       -1.09810        1.78150
C          2.77420       -1.92470        3.02520
C          3.19070       -1.11250        4.21550
C          4.62100       -0.68950        4.05650
H         -0.25650        2.00870       -0.93740
H         -2.63680        4.65270        1.37720
H         -4.10240        3.78310        0.86330
H         -1.33960        2.58060        1.18390
H         -2.80520        1.71100        0.67010
H         -3.01940        3.21120       -1.25800
H         -1.55380        4.08090       -0.74420
H         -1.42720        3.37860       -2.99970
H         -2.99390        0.77650       -1.45130
H         -0.14120       -0.37160       -1.45130
H         -3.00220       -1.69810       -1.45130
H         -1.73420       -3.80150       -1.45130
H          0.63360       -3.36000       -0.56130
H          0.63360       -1.81850       -1.45130
H          0.03770       -3.95030       -3.36360
H          2.44350       -4.19750       -3.79170
H          4.10220       -3.35190       -2.32710
H          2.96920       -3.60000       -0.97690
H          3.02180       -1.05750       -2.72940
H          2.51080       -0.01480       -0.56520
H          1.46000       -2.21770        0.70680
H          3.13310       -2.79380        0.51440
H          2.28200       -0.21470        1.85830
H          3.95510       -0.79070        1.66600
H          1.73490       -2.23220        3.14070
H          3.40800       -2.80820        2.94840
H          3.08780       -1.71320        5.11920
H          2.55690       -0.22910        4.29230
H          4.72380       -0.08880        3.15280
H          4.92360       -0.09930        4.92140
H          5.25480       -1.57290        3.97970
