54
5-HETE
C         -1.35300        5.36680       -2.96310
O         -1.44310        6.20860       -3.86910
O         -2.31970        4.65540       -2.65170
C         -0.03650        5.23700       -2.25600
C          0.81310        4.22300       -2.96310
C          0.11270        2.89660       -2.96310
C         -0.12080        2.45440       -1.54890
O          1.09040        2.33510       -0.89830
C         -0.82120        1.12800       -1.54880
C         -0.12910       -0.02010       -1.54880
C         -0.82950       -1.34660       -1.54880
C         -0.13730       -2.49470       -1.54880
C          1.36270       -2.49470       -1.54880
C          1.86270       -3.90890       -1.54880
C          1.55210       -4.75280       -0.55450
C          0.69340       -4.31360        0.59420
C          1.56180       -3.75890        1.68420
C          1.03030       -3.29640        2.82480
C         -0.45220       -3.31680        3.05250
C         -0.83640       -2.17570        3.94700
C         -0.12670       -2.31010        5.26170
C         -0.51100       -1.16900        6.15620
C         -1.99340       -1.18940        6.38390
H         -0.73810        3.19130       -1.03500
H         -0.20610        4.91580       -1.22830
H          0.47250        6.20090       -2.25600
H          0.98280        4.54430       -3.99070
H          1.76980        4.12880       -2.44920
H         -0.84400        2.99090       -3.47690
H          0.73000        2.15970       -3.47690
H          1.03050        2.04290        0.05620
H         -1.90150        1.12800       -1.54880
H          0.95120       -0.02010       -1.54890
H         -1.90970       -1.34660       -1.54880
H         -0.64180       -3.45000       -1.54880
H          1.72600       -1.98090       -0.65890
H          1.72600       -1.98090       -2.43880
H          2.48110       -4.22530       -2.37620
H          1.91220       -5.77130       -0.55450
H          0.13230       -5.16670        0.97540
H         -0.00060       -3.54420        0.25560
H          2.62950       -3.74420        1.52020
H          1.65580       -2.89700        3.60980
H         -0.96780       -3.21920        2.09720
H         -0.73450       -4.25850        3.52320
H         -1.91370       -2.19050        4.11250
H         -0.55400       -1.23400        3.47630
H         -0.40910       -3.25180        5.73240
H          0.95050       -2.29530        5.09620
H         -0.22860       -0.22730        5.68550
H          0.00470       -1.26670        7.11160
H         -2.27580       -2.13110        6.85460
H         -2.27260       -0.36020        7.03400
H         -2.50910       -1.09180        5.42860
