54
5-HETE
C         -2.43040        4.25440       -3.07270
O         -2.64480        5.02240       -2.12310
O         -1.66190        4.57250       -3.99240
C         -3.13080        2.92790       -3.07270
C         -3.36420        2.48580       -1.65850
C         -2.04770        2.35600       -0.95140
C         -2.28120        1.91390        0.46280
O         -1.07000        1.79450        1.11340
C         -2.98160        0.58750        0.46280
C         -2.28950       -0.56070        0.46280
C         -2.98990       -1.88710        0.46280
C         -2.29780       -3.03530        0.46280
C         -0.79780       -3.03530        0.46280
C         -0.29780       -2.32820       -0.76190
C          0.87040       -2.66480       -1.32700
C          1.72000       -3.76080       -0.75520
C          3.16440       -3.47430       -1.04060
C          3.91160       -2.76380       -0.18370
C          3.33030       -2.22940        1.09160
C          4.38720       -1.47980        1.84740
C          3.80590       -0.94550        3.12270
C          4.86270       -0.19590        3.87840
C          5.36310        0.94360        3.04100
H         -2.89860        2.65080        0.97670
H         -2.51340        2.19110       -3.58650
H         -4.08740        3.02220       -3.58650
H         -3.98160        3.22260       -1.14470
H         -3.87320        1.52190       -1.65850
H         -1.43040        1.61920       -1.46520
H         -1.53880        3.31990       -0.95140
H         -1.13000        1.50240        2.06780
H         -4.06190        0.58750        0.46280
H         -1.20920       -0.56070        0.46280
H         -4.07020       -1.88710        0.46280
H         -2.80220       -3.99060        0.46280
H         -0.43440       -4.06290        0.46280
H         -0.43440       -2.52140        1.35280
H         -0.90960       -1.53880       -1.17380
H          1.23050       -2.15550       -2.20910
H          1.44130       -4.71130       -1.21000
H          1.56630       -3.81480        0.32260
H          3.58310       -3.85920       -1.95910
H          4.95190       -2.55750       -0.38930
H          2.50340       -1.55780        0.86070
H          2.96670       -3.05740        1.70020
H          4.75070       -0.65190        1.23880
H          5.21400       -2.15150        2.07830
H          2.97900       -0.27380        2.89170
H          3.44230       -1.77340        3.73130
H          5.68960       -0.86750        4.10940
H          4.44030        0.19240        4.80520
H          4.53620        1.61520        2.81000
H          6.13110        1.48820        3.59010
H          5.78550        0.55520        2.11420
