54
5-HETE
C          1.83640        5.44410        2.45660
O          1.26700        6.39950        1.90840
O          2.94860        5.58080        2.98760
C          1.13600        4.11770        2.45660
C         -0.18050        4.24740        1.74950
C         -0.88090        2.92100        1.74950
C         -2.19740        3.05070        1.04240
O         -2.97900        3.98360        1.69300
C         -2.89790        1.72430        1.04240
C         -2.20570        0.57610        1.04240
C         -2.90610       -0.75030        1.04240
C         -2.21400       -1.89840        1.04240
C         -0.71400       -1.89840        1.04240
C         -0.21400       -3.12320        1.74950
C          0.95410       -3.68830        1.41290
C          1.80370       -3.11640        0.31690
C          2.58150       -4.21830       -0.33940
C          2.43800       -4.48370       -1.64560
C          1.49440       -3.68840       -2.49840
C          1.53940       -4.20220       -3.90690
C          0.59580       -3.40690       -4.75960
C          0.64080       -3.92070       -6.16810
C          2.03480       -3.78580       -6.70530
H         -2.02780        3.37200        0.01480
H          0.96630        3.79640        3.48430
H          1.75330        3.38080        1.94280
H         -0.79790        4.98430        2.26340
H         -0.01090        4.56870        0.72190
H         -0.26360        2.18410        1.23570
H         -1.05060        2.59970        2.77720
H         -3.88060        4.13580        1.28800
H         -3.97810        1.72430        1.04240
H         -1.12540        0.57610        1.04240
H         -3.98640       -0.75030        1.04240
H         -2.71840       -2.85370        1.04240
H         -0.35070       -1.00850        1.55630
H         -0.35070       -1.89840        0.01480
H         -0.82590       -3.53500        2.53890
H          1.31420       -4.57030        1.92220
H          2.49390       -2.38460        0.73660
H          1.16560       -2.63200       -0.42220
H          3.26110       -4.79110        0.27470
H          2.99820       -5.27730       -2.11840
H          0.48140       -3.78650       -2.10800
H          1.78900       -2.63910       -2.48480
H          1.24480       -5.25160       -3.92050
H          2.55240       -4.10420       -4.29720
H         -0.41720       -3.50500       -4.36930
H          0.89040       -2.35760       -4.74600
H         -0.04490       -3.34280       -6.78780
H          0.34620       -4.97010       -6.18170
H          2.72050       -4.36370       -6.08570
H          2.06750       -4.15910       -7.72890
H          2.32940       -2.73640       -6.69180
