57
7S_Maresin1
C         -7.01530       -2.71360        2.24340
C         -6.78190       -1.71000        3.33340
C         -5.93230       -0.59060        2.80880
C         -6.63270        0.07260        1.66010
C         -5.94060        0.64670        0.66570
C         -4.44060        0.64670        0.66570
C         -3.94060        1.87150       -0.04140
O         -4.40060        1.87150       -1.34240
C         -2.44060        1.87150       -0.04140
C         -1.74850        3.01960       -0.04140
C         -0.24850        3.01960       -0.04140
C          0.44360        1.87150       -0.04140
C          1.94360        1.87150       -0.04140
C          2.63580        0.72330       -0.04140
C          4.13580        0.72330       -0.04140
O          4.59580        1.85010        0.60920
C          4.63580        0.72330       -1.45560
C          4.13580       -0.50140       -2.16270
C          4.98750       -1.39800       -2.68030
C          6.47160       -1.20900       -2.57120
C          7.14440       -2.54900       -2.52830
C          7.37140       -3.17250       -1.36350
C          6.96070       -2.55300       -0.06060
C          8.08360       -1.71080        0.46850
O         -7.17970       -3.91480        2.50370
O         -7.03870       -2.30310        1.07360
H         -4.30390        2.76140        0.47250
H          4.49910       -0.16670        0.47250
H         -7.73850       -1.31210        3.67200
H         -6.27290       -2.19190        4.16820
H         -5.76270        0.13880        3.60090
H         -4.97570       -0.98840        2.47020
H         -7.71300        0.07260        1.66010
H         -6.44500        1.12430       -0.16160
H         -4.07730       -0.24330        0.15190
H         -4.07730        0.64670        1.69340
H         -4.96870        1.08660       -1.58980
H         -1.93620        0.91620       -0.04140
H         -2.25290        3.97490       -0.04140
H          0.25590        3.97490       -0.04140
H         -0.06080        0.91620       -0.04140
H          2.44810        2.82670       -0.04140
H          2.13130       -0.23200       -0.04140
H          5.16390        2.45680        0.05310
H          5.72580        0.72330       -1.45560
H          4.27240        1.61330       -1.96940
H          3.06700       -0.63750       -2.24130
H          4.62740       -2.28000       -3.18960
H          6.70160       -0.65760       -1.65950
H          6.83110       -0.64940       -3.43480
H          7.44020       -2.99520       -3.46670
H          7.85590       -4.13750       -1.33260
H          6.08070       -1.92890       -0.21640
H          6.72630       -3.33880        0.65750
H          8.96360       -2.33490        0.62440
H          7.78520       -1.26060        1.41530
H          8.31800       -0.92500       -0.24960
