57
7S_Maresin1
C         -6.04970       -4.55660        3.80020
C         -7.00470       -3.55190        3.22700
C         -6.44360       -3.00060        1.94980
C         -5.12710       -2.33740        2.22730
C         -4.42030       -1.76340        1.24330
C         -4.92030       -1.76340       -0.17090
C         -4.42030       -0.53860       -0.87800
O         -4.88030       -0.53860       -2.17910
C         -2.92030       -0.53860       -0.87800
C         -2.22820        0.60950       -0.87800
C         -0.72820        0.60950       -0.87800
C         -0.03610       -0.53860       -0.87800
C          1.46390       -0.53860       -0.87800
C          2.15610        0.60950       -0.87800
C          3.65610        0.60950       -0.87800
O          4.11610        1.26010        0.24870
C          4.15610        1.31660       -2.10280
C          3.65610        2.73090       -2.10280
C          4.36280        3.71480       -1.52870
C          5.67930        3.43740       -0.86550
C          6.75660        4.23390       -1.54000
C          8.03100        4.16060       -1.13020
C          8.42590        3.27950        0.01760
C          8.78500        1.91740       -0.49800
O         -6.30250       -5.14780        4.86050
O         -4.99910       -4.77660        3.17930
H         -4.78360        0.35140       -0.36420
H          4.01940       -0.41810       -0.87800
H         -7.96140       -4.03380        3.02540
H         -7.14980       -2.74050        3.94020
H         -6.29850       -3.81210        1.23670
H         -7.13750       -2.27060        1.53330
H         -4.76700       -2.33740        3.24580
H         -3.47220       -1.28570        1.44310
H         -6.01030       -1.76340       -0.17090
H         -4.55700       -2.65330       -0.68480
H         -4.59390        0.24630       -2.72860
H         -2.41590       -1.49390       -0.87800
H         -2.73260        1.56480       -0.87800
H         -0.22380        1.56480       -0.87800
H         -0.54050       -1.49390       -0.87800
H          1.96840       -1.49390       -0.87800
H          1.65160        1.56480       -0.87800
H          3.82970        0.85510        1.11710
H          3.79270        0.80280       -2.99280
H          5.24610        1.31660       -2.10280
H          2.70790        2.93070       -2.58040
H          4.00270        4.73330       -1.52870
H          5.90930        2.37490       -0.94480
H          5.62310        3.71950        0.18590
H          6.47220        4.86850       -2.36670
H          8.80690        4.73420       -1.61600
H          9.28550        3.71250        0.52910
H          7.59240        3.19580        0.71500
H          7.92540        1.48430       -1.00950
H          9.07190        1.27710        0.33610
H          9.61850        2.00110       -1.19540
