57
7S_Maresin1
C         -2.19540        2.32590       -5.07890
C         -2.11810        2.63430       -3.61300
C         -3.45660        2.39390       -2.98020
C         -3.84840        0.95830       -3.16920
C         -4.62040        0.32780       -2.27260
C         -5.12040        1.03490       -1.04790
C         -4.62040        0.32780        0.17690
O         -5.08040        0.97840        1.30370
C         -3.12040        0.32780        0.17690
C         -2.42830        1.47600        0.17690
C         -0.92830        1.47600        0.17690
C         -0.23610        0.32780        0.17690
C          1.26390        0.32780        0.17690
C          1.95600       -0.82030        0.17690
C          3.45600       -0.82030        0.17690
O          3.91600       -1.47090       -0.94990
C          3.95600       -1.52740        1.40160
C          3.45600       -2.94170        1.40160
C          3.76650       -3.78550        2.39600
C          4.62530       -3.34630        3.54470
C          3.75680       -2.79160        4.63470
C          3.89640       -1.52600        5.05440
C          4.92620       -0.61860        4.44920
C          4.44070        0.79930        4.51000
O         -1.47880        1.45120       -5.58780
O         -2.99930        2.97410       -5.76530
H         -4.98370       -0.69990        0.17690
H          3.81930        0.20730        0.17690
H         -1.37390        1.98990       -3.14500
H         -1.83330        3.67740       -3.47570
H         -3.40040        2.61790       -1.91490
H         -4.20080        3.03820       -3.44820
H         -3.48830        0.44910       -4.05120
H         -4.90260       -0.70610       -2.40870
H         -6.21040        1.03490       -1.04790
H         -4.75700        2.06260       -1.04790
H         -4.79400        0.57340        2.17200
H         -2.61600       -0.62750        0.17690
H         -2.93270        2.43120        0.17690
H         -0.42380        2.43120        0.17690
H         -0.74060       -0.62750        0.17690
H          1.76830        1.28310        0.17690
H          1.45160       -1.77560        0.17690
H          3.62960       -1.06590       -1.81820
H          3.59260       -1.01360        2.29160
H          5.04600       -1.52740        1.40160
H          2.83750       -3.25800        0.57430
H          3.40640       -4.80410        2.39600
H          5.31920       -2.57690        3.20610
H          5.18640       -4.19950        3.92590
H          3.01520       -3.44510        5.07050
H          3.27100       -1.12660        5.83940
H          5.85980       -0.70710        5.00470
H          5.09360       -0.90110        3.40990
H          3.50700        0.88780        3.95450
H          5.18900        1.45870        4.07020
H          4.27330        1.08180        5.54930
