57
7S_Maresin1
C         -8.46870        2.53420        2.88330
C         -7.15220        1.87100        3.16080
C         -6.07480        2.54550        2.36430
C         -4.75830        1.88220        2.64170
C         -4.05160        1.30820        1.65770
C         -4.55160        1.30820        0.24350
C         -4.05160        2.53290       -0.46360
O         -4.51160        2.53290       -1.76470
C         -2.55160        2.53290       -0.46360
C         -1.85950        1.38480       -0.46360
C         -0.35950        1.38480       -0.46360
C          0.33260        0.23660       -0.46360
C          1.83260        0.23660       -0.46360
C          2.52480       -0.91150       -0.46360
C          4.02480       -0.91150       -0.46360
O          4.48480        0.38960       -0.46360
C          4.52480       -1.61860       -1.68830
C          6.02480       -1.61860       -1.68830
C          6.71690       -2.61290       -1.11430
C          6.01650       -3.76170       -0.45100
C          7.03360       -4.71650        0.10020
C          7.92480       -5.31710       -0.70120
C          7.93740       -5.05610       -2.17830
C          7.04140       -6.04190       -2.86780
O         -9.20130        2.14270        1.96270
O         -8.80050        3.48670        3.60460
H         -4.41490        3.42290        0.05030
H          4.38810       -1.42530        0.42640
H         -6.92220        1.95020        4.22330
H         -7.20840        0.81960        2.87870
H         -6.30480        2.46620        1.30180
H         -6.01860        3.59680        2.64640
H         -4.39820        1.88220        3.66020
H         -3.10350        0.83050        1.85750
H         -5.64160        1.30820        0.24350
H         -4.18830        0.41820       -0.27030
H         -4.22520        3.31780       -2.31420
H         -2.04720        3.48820       -0.46360
H         -2.36390        0.42950       -0.46360
H          0.14490        2.34010       -0.46360
H         -0.17180       -0.71870       -0.46360
H          2.33710        1.19190       -0.46360
H          2.02030       -1.86680       -0.46360
H          4.19840        0.93910        0.32130
H          4.16140       -1.10480       -2.57830
H          4.16140       -2.64630       -1.68830
H          6.52920       -0.79130       -2.16600
H          7.79720       -2.61290       -1.11430
H          5.39240       -4.27710       -1.18110
H          5.39240       -3.38710        0.36040
H          7.02460       -4.90440        1.16400
H          8.65730       -6.00470       -0.30420
H          7.58110       -4.04430       -2.37150
H          8.95380       -5.16200       -2.55730
H          7.39760       -7.05380       -2.67450
H          7.05050       -5.85230       -3.94110
H          6.02490       -5.93600       -2.48870
