57
7S_Maresin1
C         -6.23390       -2.07540       -1.58110
C         -6.93430       -0.92670       -0.91790
C         -6.08470        0.30500       -1.02330
C         -6.78510        1.45370       -0.36010
C         -6.09300        2.44810        0.21400
C         -4.59300        2.44810        0.21400
C         -4.09300        3.67280        0.92110
O         -4.55300        4.79960        0.27060
C         -2.59300        3.67280        0.92110
C         -1.90090        2.52470        0.92110
C         -0.40090        2.52470        0.92110
C          0.29120        1.37650        0.92110
C          1.79120        1.37650        0.92110
C          2.48330        0.22840        0.92110
C          3.98330        0.22840        0.92110
O          4.44330        1.52950        0.92110
C          4.48330       -0.47870       -0.30360
C          5.98330       -0.47870       -0.30360
C          6.67550       -1.62690       -0.30360
C          5.97510       -2.95330       -0.30360
C          6.82460       -3.96730       -1.01080
C          6.77890       -5.26420       -0.67410
C          5.87650       -5.74840        0.42190
C          6.69880       -6.39060        1.49950
O         -5.46540       -2.81080       -0.94370
O         -6.44840       -2.26580       -2.78750
H         -4.45640        3.67280        1.94880
H          4.34670       -0.28550        1.81110
H         -7.89100       -0.75140       -1.41010
H         -7.10400       -1.16230        0.13270
H         -5.12810        0.12970       -0.53120
H         -5.91510        0.54060       -2.07390
H         -7.86540        1.45370       -0.36010
H         -6.59740        3.27540        0.69160
H         -4.22970        2.44810       -0.81370
H         -4.22970        1.55810        0.72780
H         -5.12110        4.62140       -0.53290
H         -2.08860        4.62810        0.92110
H         -2.40530        1.56940        0.92110
H          0.10350        3.48000        0.92110
H         -0.21320        0.42120        0.92110
H          2.29560        2.33180        0.92110
H          1.97890       -0.72690        0.92110
H          5.01140        1.77690        0.13620
H          4.12000        0.03510       -1.19360
H          4.12000       -1.50640       -0.30360
H          6.48780        0.47660       -0.30360
H          7.75570       -1.62690       -0.30360
H          5.01840       -2.85900       -0.81750
H          5.80540       -3.27460        0.72400
H          7.47450       -3.61860       -1.80010
H          7.39070       -5.99450       -1.18340
H          5.32620       -4.90490        0.83870
H          5.17350       -6.47720        0.01830
H          7.24920       -7.23410        1.08270
H          6.04310       -6.74240        2.29600
H          7.40180       -5.66180        1.90310
