57
7S_Maresin1
C         -7.64560       -3.62680        4.26040
C         -6.32910       -4.17430        3.79450
C         -5.47950       -3.05490        3.26990
C         -6.17990       -2.39170        2.12110
C         -5.48780       -1.81760        1.12680
C         -3.98780       -1.81760        1.12680
C         -3.48780       -0.59290        0.41970
O         -3.94780       -0.59290       -0.88140
C         -1.98780       -0.59290        0.41970
C         -1.29570        0.55530        0.41970
C          0.20430        0.55530        0.41970
C          0.89640       -0.59290        0.41970
C          2.39640       -0.59290        0.41970
C          3.08850        0.55530        0.41970
C          4.58850        0.55530        0.41970
O          5.04850        1.20580        1.54650
C          5.08850        1.26240       -0.80500
C          4.58850        0.55530       -2.02980
C          4.89910        0.99440       -3.25780
C          5.75780        2.20890       -3.45170
C          5.93850        2.46440       -4.91870
C          6.11460        3.70780       -5.38820
C          6.13730        4.88860       -4.46350
C          6.34890        6.14260       -5.25900
O         -8.01100       -3.75410        5.43850
O         -8.35660       -3.04270        3.42910
H         -3.85120        0.29710        0.93350
H          4.95190       -0.47240        0.41970
H         -5.82010       -4.65620        4.62920
H         -6.49880       -4.90360        3.00240
H         -5.30990       -2.32560        4.06190
H         -4.52290       -3.45280        2.93130
H         -7.26020       -2.39170        2.12110
H         -5.99220       -1.34000        0.29950
H         -3.62450       -2.70760        0.61300
H         -3.62450       -1.81760        2.15450
H         -3.66150        0.19200       -1.43090
H         -1.48340       -1.54820        0.41970
H         -1.80010        1.51060        0.41970
H          0.70870        1.51060        0.41970
H          0.39200       -1.54820        0.41970
H          2.90080       -1.54820        0.41970
H          2.58410        1.51060        0.41970
H          4.76220        0.80080        2.41480
H          6.17850        1.26240       -0.80500
H          4.72520        2.29000       -0.80500
H          3.97010       -0.31940       -1.89010
H          4.53900        0.48520       -4.13980
H          6.73090        2.04350       -2.98920
H          5.27750        3.07110       -2.98920
H          5.92210        1.61400       -5.58460
H          6.24470        3.89180       -6.44470
H          5.18820        4.95180       -3.93130
H          6.94930        4.77240       -3.74570
H          7.29800        6.07950       -5.79120
H          6.36540        7.00070       -4.58710
H          5.53690        6.25880       -5.97690
