57
7S_Maresin1
C         -5.57830       -0.35370       -3.74370
C         -6.27870        0.30950       -2.59500
C         -5.88690        1.75630       -2.53850
C         -6.58730        2.41950       -1.38980
C         -5.89520        2.99360       -0.39550
C         -4.39520        2.99360       -0.39550
C         -3.89520        1.76880        0.31170
O         -4.35520        1.76880        1.61270
C         -2.39520        1.76880        0.31170
C         -1.70310        2.91700        0.31170
C         -0.20310        2.91700        0.31170
C          0.48900        1.76880        0.31170
C          1.98900        1.76880        0.31170
C          2.68120        0.62070        0.31170
C          4.18120        0.62070        0.31170
O          4.64120        0.62070       -0.98940
C          4.68120       -0.60400        1.01880
C          4.18120       -1.82880        0.31170
C          3.95050       -2.96800        0.97970
C          4.18390       -3.05930        2.45860
C          4.56740       -4.46410        2.81840
C          5.85100       -4.85080        2.82590
C          6.95050       -3.89280        2.47470
C          8.27320       -4.59430        2.56650
O         -5.27940       -1.55650       -3.70300
O         -5.30800        0.33990       -4.73540
H         -4.25850        0.87890       -0.20220
H          4.54450        1.51070        0.82550
H         -7.35710        0.23020       -2.73230
H         -5.99400       -0.18070       -1.66400
H         -4.80850        1.83560       -2.40120
H         -6.17160        2.24640       -3.46950
H         -7.66760        2.41950       -1.38980
H         -6.39960        3.47120        0.43190
H         -4.03190        3.88360        0.11840
H         -4.03190        2.99360       -1.42310
H         -4.06880        0.98400        2.16220
H         -1.89080        0.81360        0.31170
H         -2.20750        3.87230        0.31170
H          0.30130        3.87230        0.31170
H         -0.01540        0.81360        0.31170
H          2.49350        2.72410        0.31170
H          2.17670       -0.33460        0.31170
H          5.20930       -0.16420       -1.23680
H          4.31780       -0.60400        2.04640
H          5.77120       -0.60400        1.01880
H          4.01300       -1.76300       -0.75340
H          3.59040       -3.85000        0.47050
H          3.27160       -2.78480        2.98810
H          4.98730       -2.37940        2.74230
H          3.77560       -5.15410        3.07140
H          6.12720       -5.86260        3.08510
H          6.80290       -3.52700        1.45860
H          6.93590       -3.05260        3.16900
H          8.42080       -4.96000        3.58260
H          9.07210       -3.89810        2.31130
H          8.28780       -5.43440        1.87220
