57
7S_Maresin1
C         -7.53250        2.68900       -0.52050
C         -6.67370        2.17360       -1.63710
C         -5.65660        1.21880       -1.08590
C         -6.35700        0.07010       -0.42260
C         -5.66490       -0.92430        0.15140
C         -4.16490       -0.92430        0.15140
C         -3.66490       -0.92430        1.56560
O         -4.12490        0.20250        2.21620
C         -2.16490       -0.92430        1.56560
C         -1.47280        0.22390        1.56560
C          0.02720        0.22390        1.56560
C          0.71940       -0.92430        1.56560
C          2.21940       -0.92430        1.56560
C          2.91150       -2.07240        1.56560
C          4.41150       -2.07240        1.56560
O          4.87150       -1.42190        2.69240
C          4.91150       -1.36530        0.34090
C          4.41150       -2.07240       -0.88380
C          4.72200       -1.63320       -2.11180
C          5.58080       -0.41880       -2.30580
C          6.35300       -0.55150       -3.58490
C          6.70470        0.52900       -4.29630
C          6.33890        1.91000       -3.83910
C          7.42940        2.45190       -2.96320
O         -8.71220        3.01530       -0.71850
O         -7.02420        2.77800        0.60710
H         -4.02820       -1.81420        2.07950
H          4.77480       -3.10010        1.56560
H         -7.29770        1.65810       -2.36720
H         -6.16470        3.00830       -2.11900
H         -5.03260        0.84430       -1.89730
H         -5.03260        1.73420       -0.35580
H         -7.43730        0.07010       -0.42260
H         -6.16930       -1.75160        0.62910
H         -3.80150       -0.03430       -0.36240
H         -3.80150       -1.81420       -0.36240
H         -3.83850        0.28590        3.17070
H         -1.66040       -1.87950        1.56560
H         -1.97720        1.17920        1.56560
H          0.53170        1.17920        1.56560
H          0.21490       -1.87950        1.56560
H          2.72380        0.03100        1.56560
H          2.40710       -3.02770        1.56560
H          5.43960       -0.61840        2.51420
H          6.00150       -1.36530        0.34090
H          4.54820       -0.33760        0.34090
H          3.79300       -2.94700       -0.74420
H          4.36190       -2.14250       -2.99390
H          6.27480       -0.32730       -1.47020
H          4.94970        0.46870       -2.35280
H          6.61640       -1.54610       -3.91420
H          7.26080        0.43340       -5.21750
H          6.21330        2.55840       -4.70610
H          5.40630        1.87120       -3.27620
H          7.55500        1.80350       -2.09610
H          7.16360        3.45540       -2.63100
H          8.36200        2.49070       -3.52610
