55
elaidic
C         -7.78600        4.98420        2.26430
C         -8.28600        4.27710        1.03950
C         -7.78600        4.98420       -0.18520
C         -6.28600        4.98420       -0.18520
C         -5.78600        3.57000       -0.18520
C         -4.28600        3.57000       -0.18520
C         -3.78600        2.15580       -0.18520
C         -2.28600        2.15580       -0.18520
C         -1.78600        0.74160       -0.18520
C         -0.28600        0.74160       -0.18520
C          0.21400       -0.67260       -0.18520
C          1.71400       -0.67260       -0.18520
C          2.21400       -2.08680       -0.18520
C          3.71400       -2.08680       -0.18520
C          4.21400       -3.50100       -0.18520
C          5.71400       -3.50100       -0.18520
C          6.21400       -4.91530       -0.18520
C          7.71400       -4.91530       -0.18520
O          8.35420       -5.44620       -1.10490
O          8.29300       -4.36700        0.76440
H         -6.69600        4.98420        2.26430
H         -8.14930        4.47040        3.15430
H         -8.14930        6.01190        2.26430
H         -9.37600        4.27710        1.03950
H         -7.92260        3.24950        1.03950
H         -8.14930        4.47040       -1.07520
H         -8.14930        6.01190       -0.18520
H         -5.92260        5.49810       -1.07520
H         -5.92260        5.49810        0.70480
H         -6.14930        3.05620        0.70480
H         -6.14930        3.05620       -1.07520
H         -3.92260        4.08390        0.70480
H         -3.92260        4.08390       -1.07520
H         -4.14930        1.64200       -1.07520
H         -4.14930        1.64200        0.70480
H         -1.92260        2.66960       -1.07520
H         -1.92260        2.66960        0.70480
H         -2.14930        0.22780       -1.07520
H          0.07740        1.25540       -1.07520
H         -0.14930       -1.18640        0.70480
H         -0.14930       -1.18640       -1.07520
H          2.07740       -0.15880       -1.07520
H          2.07740       -0.15880        0.70480
H          1.85070       -2.60070       -1.07520
H          1.85070       -2.60070        0.70480
H          4.07740       -1.57300        0.70480
H          4.07740       -1.57300       -1.07520
H          3.85070       -4.01490       -1.07520
H          3.85070       -4.01490        0.70480
H          6.07740       -2.98720        0.70480
H          6.07740       -2.98720       -1.07520
H          5.85070       -5.42910        0.70480
H          5.85070       -5.42910       -1.07520
H         -2.14930        0.22780        0.70480
H          0.07740        1.25540        0.70480
