55
elaidic
C         -7.78600        3.92620       -0.55110
C         -8.28600        3.21910       -1.77590
C         -7.78600        1.80490       -1.77590
C         -6.28600        1.80490       -1.77590
C         -5.78600        0.39060       -1.77590
C         -4.28600        0.39060       -1.77590
C         -3.78600       -1.02360       -1.77590
C         -2.28600       -1.02360       -1.77590
C         -1.78600       -2.43780       -1.77590
C         -0.28600       -2.43780       -1.77590
C          0.21400       -1.73070       -0.55110
C          1.71400       -1.73070       -0.55110
C          2.21400       -1.02360        0.67360
C          3.71400       -1.02360        0.67360
C          4.21400       -0.31650        1.89840
C          5.71400       -0.31650        1.89840
C          6.21400        0.39060        3.12310
C          7.71400        0.39060        3.12310
O          8.35420        1.45260        3.12310
O          8.29300       -0.70590        3.12310
H         -8.14930        3.41230        0.33880
H         -8.14930        4.95380       -0.55110
H         -6.69600        3.92620       -0.55110
H         -7.92260        3.73290       -2.66590
H         -9.37600        3.21910       -1.77590
H         -8.14930        1.29100       -0.88590
H         -8.14930        1.29100       -2.66590
H         -5.92260        2.31870       -2.66590
H         -5.92260        2.31870       -0.88590
H         -6.14930       -0.12320       -0.88590
H         -6.14930       -0.12320       -2.66590
H         -3.92260        0.90450       -0.88590
H         -3.92260        0.90450       -2.66590
H         -4.14930       -1.53740       -2.66590
H         -4.14930       -1.53740       -0.88590
H         -1.92260       -0.50970       -2.66590
H         -1.92260       -0.50970       -0.88590
H         -2.14930       -2.95160       -2.66590
H          0.07740       -3.46550       -1.77590
H         -0.14930       -0.70300       -0.55110
H         -0.14930       -2.24450        0.33880
H          2.07740       -2.75830       -0.55110
H          2.07740       -1.21690       -1.44110
H          1.85070       -1.53740        1.56360
H          1.85070        0.00410        0.67360
H          4.07740       -0.50970       -0.21640
H          4.07740       -2.05120        0.67360
H          3.85070       -0.83030        2.78830
H          3.85070        0.71120        1.89840
H          6.07740        0.19740        1.00840
H          6.07740       -1.34410        1.89840
H          5.85070        1.41830        3.12310
H          5.85070       -0.12320        4.01310
H         -2.14930       -2.95160       -0.88590
H          0.07740       -1.92400       -2.66590
