55
elaidic
C         -7.20470        7.09830       -0.66300
C         -5.70470        7.09830       -0.66300
C         -5.20470        5.68410       -0.66300
C         -3.70470        5.68410       -0.66300
C         -3.20470        4.26990       -0.66300
C         -1.70470        4.26990       -0.66300
C         -1.20470        2.85570       -0.66300
C          0.29530        2.85570       -0.66300
C          0.79530        1.44150       -0.66300
C          2.29530        1.44150       -0.66300
C          2.79530        0.02720       -0.66300
C          2.29530       -0.67990        0.56170
C          2.79530       -2.09410        0.56170
C          2.29530       -2.80120       -0.66300
C          2.79530       -4.21540       -0.66300
C          2.29530       -4.92250        0.56170
C          2.79530       -6.33670        0.56170
C          2.29530       -7.04380        1.78650
O          2.08190       -8.26530        1.77820
O          2.10230       -6.36720        2.80750
H         -7.56800        6.58450       -1.55300
H         -7.56800        8.12600       -0.66300
H         -7.56800        6.58450        0.22700
H         -5.34130        7.61210        0.22700
H         -5.34130        7.61210       -1.55300
H         -5.56800        5.17030        0.22700
H         -5.56800        5.17030       -1.55300
H         -3.34130        6.19790       -1.55300
H         -3.34130        6.19790        0.22700
H         -3.56800        3.75610        0.22700
H         -3.56800        3.75610       -1.55300
H         -1.34130        4.78370        0.22700
H         -1.34130        4.78370       -1.55300
H         -1.56800        2.34180       -1.55300
H         -1.56800        2.34180        0.22700
H          0.65870        3.36950       -1.55300
H          0.65870        3.36950        0.22700
H          0.43200        0.92760       -1.55300
H          2.65870        1.95530       -1.55300
H          2.43200       -0.48660       -1.55300
H          3.88530        0.02720       -0.66300
H          2.65870       -0.16600        1.45170
H          1.20530       -0.67990        0.56170
H          2.43200       -2.60790        1.45170
H          3.88530       -2.09410        0.56170
H          2.65870       -2.28740       -1.55300
H          1.20530       -2.80120       -0.66300
H          3.88530       -4.21540       -0.66300
H          2.43200       -4.72920       -1.55300
H          1.20530       -4.92250        0.56170
H          2.65870       -4.40870        1.45170
H          2.43200       -6.85060       -0.32820
H          3.88530       -6.33670        0.56170
H          0.43200        0.92760        0.22700
H          2.65870        1.95530        0.22700
