55
elaidic
C         -6.20550        1.30300        1.88640
C         -4.70550        1.30300        1.88640
C         -4.20550        2.01010        0.66160
C         -2.70550        2.01010        0.66160
C         -2.20550        2.71720       -0.56310
C         -0.70550        2.71720       -0.56310
C         -0.20550        3.42430       -1.78780
C          1.29450        3.42430       -1.78780
C          1.79450        2.01010       -1.78780
C          3.29450        2.01010       -1.78780
C          3.79450        0.59590       -1.78780
C          3.29450       -0.11120       -0.56310
C          3.79450       -1.52550       -0.56310
C          3.29450       -2.23260        0.66160
C          1.79450       -2.23260        0.66160
C          1.29450       -2.93970        1.88640
C         -0.20550       -2.93970        1.88640
C         -0.70550       -3.64680        0.66160
O         -1.41950       -3.06360       -0.16760
O         -0.38160       -4.83350        0.50540
H         -6.56880        2.33060        1.88640
H         -6.56880        0.78910        2.77640
H         -6.56880        0.78910        0.99640
H         -4.34220        0.27530        1.88640
H         -4.34220        1.81680        2.77640
H         -4.56880        1.49620       -0.22830
H         -4.56880        3.03770        0.66160
H         -2.34220        2.52390        1.55160
H         -2.34220        0.98240        0.66160
H         -2.56880        2.20340       -1.45310
H         -2.56880        3.74480       -0.56310
H         -0.34220        1.68950       -0.56310
H         -0.34220        3.23100        0.32690
H         -0.56880        4.45200       -1.78780
H         -0.56880        2.91050       -2.67780
H          1.65780        3.93810       -2.67780
H          1.65780        3.93810       -0.89790
H          1.43120        1.49620       -2.67780
H          3.65780        2.52390       -2.67780
H          3.43120        0.08200       -2.67780
H          4.88450        0.59590       -1.78780
H          3.65780        0.40260        0.32690
H          2.20450       -0.11120       -0.56310
H          4.88450       -1.52550       -0.56310
H          3.43120       -2.03930       -1.45310
H          3.65780       -1.71870        1.55160
H          3.65780       -3.26020        0.66160
H          1.43120       -2.74640       -0.22830
H          1.43120       -1.20490        0.66160
H          1.65780       -2.42580        2.77640
H          1.65780       -3.96730        1.88640
H         -0.56880       -3.45350        2.77640
H         -0.56880       -1.91200        1.88640
H          1.43120        1.49620       -0.89790
H          3.65780        2.52390       -0.89790
