55
elaidic
C         -8.10390        6.78020       -0.96880
C         -6.60390        6.78020       -0.96880
C         -6.10390        5.36600       -0.96880
C         -4.60390        5.36600       -0.96880
C         -4.10390        3.95170       -0.96880
C         -2.60390        3.95170       -0.96880
C         -2.10390        2.53750       -0.96880
C         -0.60390        2.53750       -0.96880
C         -0.10390        1.12330       -0.96880
C          1.39610        1.12330       -0.96880
C          1.89610       -0.29090       -0.96880
C          3.39610       -0.29090       -0.96880
C          3.89610       -1.70510       -0.96880
C          3.39610       -2.41220        0.25590
C          3.89610       -3.82640        0.25590
C          3.39610       -4.53350        1.48070
C          3.89610       -5.94780        1.48070
C          3.39610       -6.65490        2.70540
O          3.68340       -7.84160        2.92150
O          2.68620       -6.01400        3.49470
H         -8.46720        6.26630       -1.85880
H         -8.46720        7.80780       -0.96880
H         -8.46720        6.26630       -0.07880
H         -6.24050        7.29400       -0.07880
H         -6.24050        7.29400       -1.85880
H         -6.46720        4.85210       -0.07880
H         -6.46720        4.85210       -1.85880
H         -4.24050        5.87980       -1.85880
H         -4.24050        5.87980       -0.07880
H         -4.46720        3.43790       -0.07880
H         -4.46720        3.43790       -1.85880
H         -2.24050        4.46560       -0.07880
H         -2.24050        4.46560       -1.85880
H         -2.46720        2.02370       -1.85880
H         -2.46720        2.02370       -0.07880
H         -0.24050        3.05140       -1.85880
H         -0.24050        3.05140       -0.07880
H         -0.46720        0.60950       -1.85880
H          1.75950        1.63710       -1.85880
H          1.53280       -0.80470       -0.07880
H          1.53280       -0.80470       -1.85880
H          3.75950        0.22290       -1.85880
H          3.75950        0.22290       -0.07880
H          4.98610       -1.70510       -0.96880
H          3.53280       -2.21890       -1.85880
H          2.30610       -2.41220        0.25590
H          3.75950       -1.89840        1.14590
H          4.98610       -3.82640        0.25590
H          3.53280       -4.34030       -0.63410
H          2.30610       -4.53350        1.48070
H          3.75950       -4.01970        2.37060
H          3.53280       -6.46160        0.59070
H          4.98610       -5.94780        1.48070
H         -0.46720        0.60950       -0.07880
H          1.75950        1.63710       -0.07880
