55
elaidic
C         -9.30390        6.35590        0.23400
C         -7.80390        6.35590        0.23400
C         -7.30390        4.94170        0.23400
C         -5.80390        4.94170        0.23400
C         -5.30390        3.52750        0.23400
C         -3.80390        3.52750        0.23400
C         -3.30390        2.11330        0.23400
C         -1.80390        2.11330        0.23400
C         -1.30390        0.69900        0.23400
C          0.19610        0.69900        0.23400
C          0.69610       -0.71520        0.23400
C          2.19610       -0.71520        0.23400
C          2.69610       -2.12940        0.23400
C          4.19610       -2.12940        0.23400
C          4.69610       -3.54360        0.23400
C          6.19610       -3.54360        0.23400
C          6.69610       -4.95780        0.23400
C          6.19610       -5.66490       -0.99080
O          6.48340       -6.85170       -1.20690
O          5.48620       -5.02410       -1.78010
H         -9.66720        5.84210       -0.65600
H         -9.66720        7.38360        0.23400
H         -9.66720        5.84210        1.12400
H         -7.44050        6.86970        1.12400
H         -7.44050        6.86970       -0.65600
H         -7.66720        4.42790        1.12400
H         -7.66720        4.42790       -0.65600
H         -5.44050        5.45550       -0.65600
H         -5.44050        5.45550        1.12400
H         -5.66720        3.01360        1.12400
H         -5.66720        3.01360       -0.65600
H         -3.44050        4.04130        1.12400
H         -3.44050        4.04130       -0.65600
H         -3.66720        1.59940       -0.65600
H         -3.66720        1.59940        1.12400
H         -1.44050        2.62710       -0.65600
H         -1.44050        2.62710        1.12400
H         -1.66720        0.18520       -0.65600
H          0.55950        1.21290       -0.65600
H          0.33280       -1.22900        1.12400
H          0.33280       -1.22900       -0.65600
H          2.55950       -0.20130       -0.65600
H          2.55950       -0.20130        1.12400
H          2.33280       -2.64320       -0.65600
H          2.33280       -2.64320        1.12400
H          4.55950       -1.61550        1.12400
H          4.55950       -1.61550       -0.65600
H          4.33280       -4.05740       -0.65600
H          4.33280       -4.05740        1.12400
H          6.55950       -3.02980        1.12400
H          6.55950       -3.02980       -0.65600
H          7.78610       -4.95780        0.23400
H          6.33280       -5.47160        1.12400
H         -1.66720        0.18520        1.12400
H          0.55950        1.21290        1.12400
