55
elaidic
C         -9.30330        1.26670        3.17200
C         -7.80330        1.26670        3.17200
C         -7.30330        1.97380        1.94730
C         -5.80330        1.97380        1.94730
C         -5.30330        2.68090        0.72250
C         -3.80330        2.68090        0.72250
C         -3.30330        3.38800       -0.50220
C         -1.80330        3.38800       -0.50220
C         -1.30330        1.97380       -0.50220
C          0.19670        1.97380       -0.50220
C          0.69670        0.55960       -0.50220
C          2.19670        0.55960       -0.50220
C          2.69670       -0.85460       -0.50220
C          4.19670       -0.85460       -0.50220
C          4.69670       -2.26890       -0.50220
C          6.19670       -2.26890       -0.50220
C          6.69670       -3.68310       -0.50220
C          6.19670       -4.39020       -1.72700
O          6.85040       -4.38540       -2.78070
O          5.10840       -4.97970       -1.65150
H         -9.66660        2.29430        3.17200
H         -9.66660        0.75280        4.06200
H         -9.66660        0.75280        2.28200
H         -7.43990        0.23900        3.17200
H         -7.43990        1.78050        4.06200
H         -7.66660        1.45990        1.05730
H         -7.66660        3.00140        1.94730
H         -5.43990        2.48760        2.83720
H         -5.43990        0.94610        1.94730
H         -5.66660        2.16710       -0.16750
H         -5.66660        3.70850        0.72250
H         -3.43990        1.65320        0.72250
H         -3.43990        3.19470        1.61250
H         -3.66660        4.41570       -0.50220
H         -3.66660        2.87420       -1.39220
H         -1.43990        3.90180       -1.39220
H         -1.43990        3.90180        0.38780
H         -1.66660        1.45990       -1.39220
H          0.56010        2.48760       -1.39220
H          0.33340        0.04570        0.38780
H          0.33340        0.04570       -1.39220
H          2.56010        1.07340       -1.39220
H          2.56010        1.07340        0.38780
H          2.33340       -1.36850       -1.39220
H          2.33340       -1.36850        0.38780
H          4.56010       -0.34080        0.38780
H          4.56010       -0.34080       -1.39220
H          4.33340       -2.78270       -1.39220
H          4.33340       -2.78270        0.38780
H          6.56010       -1.75500        0.38780
H          6.56010       -1.75500       -1.39220
H          7.78670       -3.68310       -0.50220
H          6.33340       -4.19690        0.38780
H         -1.66660        1.45990        0.38780
H          0.56010        2.48760        0.38780
