55
elaidic
C         -6.08600        2.82760       -3.67570
C         -6.58600        2.12050       -2.45100
C         -6.08600        2.82760       -1.22620
C         -6.58600        2.12050       -0.00150
C         -6.08600        2.82760        1.22320
C         -4.58600        2.82760        1.22320
C         -4.08600        1.41340        1.22320
C         -2.58600        1.41340        1.22320
C         -2.08600       -0.00090        1.22320
C         -0.58600       -0.00090        1.22320
C         -0.08600       -1.41510        1.22320
C          1.41400       -1.41510        1.22320
C          1.91400       -2.82930        1.22320
C          3.41400       -2.82930        1.22320
C          3.91400       -2.12220       -0.00150
C          5.41400       -2.12220       -0.00150
C          5.91400       -1.41510       -1.22620
C          7.41400       -1.41510       -1.22620
O          8.05420       -1.94610       -2.14590
O          7.99300       -0.86680       -0.27660
H         -6.44930        3.85520       -3.67570
H         -6.44930        2.31370       -4.56570
H         -4.99600        2.82760       -3.67570
H         -6.22260        1.09280       -2.45100
H         -7.67600        2.12050       -2.45100
H         -4.99600        2.82760       -1.22620
H         -6.44930        3.85520       -1.22620
H         -7.67600        2.12050       -0.00150
H         -6.22260        1.09280       -0.00150
H         -6.44930        3.85520        1.22320
H         -6.44930        2.31370        2.11320
H         -4.22260        3.34140        2.11320
H         -4.22260        3.34140        0.33330
H         -4.44930        0.89950        0.33330
H         -4.44930        0.89950        2.11320
H         -2.22260        1.92720        0.33330
H         -2.22260        1.92720        2.11320
H         -2.44930       -0.51470        0.33330
H         -0.22260        0.51300        0.33330
H         -0.44930       -1.92890        2.11320
H         -0.44930       -1.92890        0.33330
H          1.77740       -0.90120        0.33330
H          1.77740       -0.90120        2.11320
H          1.55070       -3.34310        0.33330
H          1.55070       -3.34310        2.11320
H          3.77740       -3.85700        1.22320
H          3.77740       -2.31550        2.11320
H          3.55070       -1.09450       -0.00150
H          3.55070       -2.63600       -0.89150
H          5.77740       -3.14980       -0.00150
H          5.77740       -1.60840        0.88850
H          5.55070       -1.92890       -2.11620
H          5.55070       -0.38740       -1.22620
H         -2.44930       -0.51470        2.11320
H         -0.22260        0.51300        2.11320
