55
elaidic
C         -7.78600        2.86230        3.48970
C         -8.28600        2.15520        2.26490
C         -7.78600        2.86230        1.04020
C         -6.28600        2.86230        1.04020
C         -5.78600        3.56940       -0.18460
C         -4.28600        3.56940       -0.18460
C         -3.78600        2.15520       -0.18460
C         -2.28600        2.15520       -0.18460
C         -1.78600        0.74100       -0.18460
C         -0.28600        0.74100       -0.18460
C          0.21400       -0.67320       -0.18460
C          1.71400       -0.67320       -0.18460
C          2.21400       -2.08750       -0.18460
C          3.71400       -2.08750       -0.18460
C          4.21400       -3.50170       -0.18460
C          5.71400       -3.50170       -0.18460
C          6.21400       -2.79460       -1.40930
C          7.71400       -2.79460       -1.40930
O          8.35420       -3.71430       -1.94030
O          8.29300       -1.84500       -0.86110
H         -6.69600        2.86230        3.48970
H         -8.14930        2.34850        4.37960
H         -8.14930        3.88990        3.48970
H         -9.37600        2.15520        2.26490
H         -7.92260        1.12750        2.26490
H         -8.14930        2.34850        0.15020
H         -8.14930        3.88990        1.04020
H         -5.92260        3.37610        1.93020
H         -5.92260        1.83460        1.04020
H         -6.14930        3.05560       -1.07460
H         -6.14930        4.59710       -0.18460
H         -3.92260        4.08320        0.70540
H         -3.92260        4.08320       -1.07460
H         -4.14930        1.64130       -1.07460
H         -4.14930        1.64130        0.70540
H         -1.92260        2.66900       -1.07460
H         -1.92260        2.66900        0.70540
H         -2.14930        0.22710       -1.07460
H          0.07740        1.25480       -1.07460
H         -0.14930       -1.18710        0.70540
H         -0.14930       -1.18710       -1.07460
H          2.07740       -0.15940       -1.07460
H          2.07740       -0.15940        0.70540
H          1.85070       -2.60130       -1.07460
H          1.85070       -2.60130        0.70540
H          4.07740       -1.57360        0.70540
H          4.07740       -1.57360       -1.07460
H          3.85070       -4.01550       -1.07460
H          3.85070       -4.01550        0.70540
H          6.07740       -4.52930       -0.18460
H          6.07740       -2.98780        0.70540
H          5.85070       -3.30840       -2.29930
H          5.85070       -1.76690       -1.40930
H         -2.14930        0.22710        0.70540
H          0.07740        1.25480        0.70540
