52
15_OxoETE
C         -0.78930        0.09240       -0.19530
C         -0.28930       -1.32180       -0.19530
C          1.21070       -1.32180       -0.19530
C          1.90280       -1.32180        0.95280
C          1.20240       -1.32180        2.27930
C          1.89450       -1.32180        3.42740
C          1.19410       -1.32180        4.75390
O          1.80780       -1.32180        5.81870
C         -0.30480       -1.32180        4.69500
C         -0.85980       -1.32180        6.08850
C         -0.38800       -2.54660        6.81470
C         -0.94300       -2.54660        8.20820
C         -0.47120       -1.32180        8.93440
C         -1.02000        0.74490       -1.34340
C         -0.78660        0.08460       -2.66990
C          0.62460        0.33580       -3.11200
C          0.88640        0.97870       -4.25890
C         -0.22220        1.47010       -5.14180
C          0.23490        1.46090       -6.57040
C         -0.87370        1.95230       -7.45330
C         -1.24650        3.35000       -7.05670
O         -2.40350        3.77070       -7.20550
O         -0.36010        4.07120       -6.57510
H         -0.95750        0.56790        0.76000
H         -0.65270       -1.83570        0.69470
H         -0.65270       -1.83570       -1.08530
H          1.71510       -1.32180       -1.15060
H          2.98310       -1.32180        0.95280
H          0.12210       -1.32180        2.27930
H          2.97480       -1.32180        3.42740
H         -0.64770       -0.43190        4.16730
H         -0.64770       -2.21180        4.16730
H         -1.94900       -1.32180        6.04580
H         -0.51690       -0.43190        6.61620
H          0.70120       -2.54660        6.85750
H         -0.73090       -3.43660        6.28700
H         -0.60010       -3.43660        8.73590
H         -2.03220       -2.54660        8.16550
H         -0.87450       -1.32180        9.94700
H         -0.81410       -0.43190        8.40670
H          0.61800       -1.32180        8.97720
H         -1.38010        1.76340       -1.34340
H         -1.47680        0.49530       -3.40670
H         -0.95210       -0.98870       -2.57560
H          1.42300       -0.01810       -2.47620
H          1.90270        1.15970       -4.57740
H         -1.08900        0.81830       -5.03340
H         -0.49310        2.48580       -4.85360
H          0.50580        0.44520       -6.85870
H          1.10170        2.11270       -6.67880
H         -1.74060        1.30040       -7.34490
H         -0.54160        1.94560       -8.49140
