52
15_OxoETE
C          1.35800        1.98250       -0.87520
C          1.85800        0.56830       -0.87520
C          3.35800        0.56830       -0.87520
C          4.05010       -0.57980       -0.87520
C          3.34970       -1.90630       -0.87520
C          4.04190       -3.05440       -0.87520
C          3.34150       -4.38090       -0.87520
O          3.95520       -5.44560       -0.87520
C          1.84260       -4.32200       -0.87520
C          1.34300       -4.30240       -2.28940
C          1.89070       -3.09820       -2.99650
C          1.39100       -3.07860       -4.41070
C         -0.10780       -3.01980       -4.41070
C          0.18990        2.30360       -0.30110
C         -0.65970        1.26040        0.36210
C         -0.84360        1.61100        1.80890
C         -1.87120        2.37200        2.21150
C         -2.87450        2.90060        1.22980
C         -4.20550        3.04840        1.90560
C         -4.07920        4.00390        3.05500
C         -5.41010        4.15170        3.73090
O         -5.48840        4.39980        4.94330
O         -6.42960        4.01760        3.03770
H          1.96990        2.73390       -1.35280
H          1.49470        0.05450        0.01480
H          1.49470        0.05450       -1.76510
H          3.86240        1.52360       -0.87520
H          5.13040       -0.57980       -0.87520
H          2.26950       -1.90630       -0.87520
H          5.12210       -3.05440       -0.87520
H          1.44460       -5.19710       -0.36130
H          1.51450       -3.41850       -0.36130
H          0.25380       -4.25970       -2.28940
H          1.67110       -5.20600       -2.80320
H          2.97980       -3.14100       -2.99650
H          1.56250       -2.19470       -2.48270
H          1.71920       -3.98220       -4.92450
H          1.78900       -2.20360       -4.92450
H         -0.47090       -3.00550       -5.43840
H         -0.43600       -2.11620       -3.89690
H         -0.50580       -3.89480       -3.89690
H         -0.17020        3.32210       -0.30110
H         -0.17080        0.28940        0.28280
H         -1.63240        1.21850       -0.12800
H         -0.12090        1.23020        2.51600
H         -2.00360        2.62450        3.25350
H         -2.54480        3.87170        0.86050
H         -2.96630        2.20630        0.39450
H         -4.53530        2.07730        2.27490
H         -4.93460        3.43260        1.19220
H         -3.74940        4.97490        2.68570
H         -3.35010        3.61970        3.76840
