52
15_OxoETE
C          0.35490        2.28950        1.95040
C          0.85490        0.87530        1.95040
C          2.35490        0.87530        1.95040
C          3.04700       -0.11900        1.37630
C          2.34660       -1.26770        0.71310
C          3.03870       -2.26210        0.13900
C          2.33830       -3.41080       -0.52420
O          1.11290       -3.49190       -0.57100
C          3.23210       -4.45400       -1.12650
C          2.54660       -5.08020       -2.30460
C          1.26510       -5.71810       -1.85630
C          1.56300       -6.77290       -0.83240
C          2.45690       -7.81610       -1.43470
C         -0.95830        2.55940        1.95040
C         -1.97540        1.45690        1.95040
C         -2.31450        1.08940        0.53620
C         -3.31480        1.69830       -0.11640
C         -4.13140        2.76930        0.54400
C         -4.00460        4.04570       -0.23370
C         -2.56550        4.46670       -0.27250
C         -2.43870        5.74310       -1.05020
O         -1.33560        6.28450       -1.21660
O         -3.47290        6.23930       -1.52120
H          1.08740        3.08350        1.95040
H          0.49150        0.36150        2.84030
H          0.49150        0.36150        1.06040
H          2.85930        1.70260        2.42800
H          4.12730       -0.11900        1.37630
H          1.26630       -1.26770        0.71310
H          4.11900       -2.26210        0.13900
H          4.16340       -3.99050       -1.45220
H          3.44870       -5.22050       -0.38240
H          3.19610       -5.83830       -2.74220
H          2.33010       -4.31370       -3.04870
H          0.76690       -6.17310       -2.71240
H          0.61550       -4.96000       -1.41870
H          0.63180       -7.23640       -0.50670
H          2.06120       -6.31790        0.02370
H          2.67340       -8.58260       -0.69060
H          3.38810       -7.35260       -1.76040
H          1.95870       -8.27120       -2.29070
H         -1.31840        3.57790        1.95040
H         -2.87590        1.79330        2.46420
H         -1.56770        0.58630        2.46420
H         -1.72640        0.31800        0.06060
H         -3.55900        1.43370       -1.13490
H         -5.17720        2.46340        0.57220
H         -3.77110        2.92600        1.56070
H         -4.59800        4.82400        0.24620
H         -4.36490        3.88900       -1.25040
H         -1.97200        3.68850       -0.75240
H         -2.20520        4.62340        0.74420
