52
15_OxoETE
C          0.88630       -0.03340       -0.80550
C          1.38630       -1.44760       -0.80550
C          2.88640       -1.44760       -0.80550
C          3.57850       -0.87350        0.18880
C          2.87810       -0.21030        1.33750
C          3.57020        0.36380        2.33190
C          2.86980        1.02700        3.48060
O          3.48350        1.55940        4.40270
C          1.37090        0.99760        3.42960
C          0.81590        1.69440        4.63650
C          1.28770        0.99680        5.87770
C          0.81590       -0.42700        5.86120
C          1.28770       -1.12450        7.10250
C          0.65560        0.61920       -1.95370
C          0.88910       -0.04120       -3.28010
C         -0.06070        0.52410       -4.29410
C         -1.38760        0.42800       -4.12860
C         -1.97070       -0.24840       -2.92340
C         -3.29190       -0.86050       -3.28380
C         -4.22760        0.21220       -3.75670
C         -5.54870       -0.39990       -4.11710
O         -6.00540       -0.30640       -5.26620
O         -6.16930       -1.00240       -3.22860
H          0.71820        0.44220        0.14980
H          1.02300       -1.96140        0.08450
H          1.02300       -1.96140       -1.69550
H          3.39080       -1.92520       -1.63280
H          4.65880       -0.87350        0.18880
H          1.79780       -0.21030        1.33750
H          4.65050        0.36380        2.33190
H          1.02800        1.50450        2.52770
H          1.02800       -0.03700        3.41760
H         -0.27330        1.67300        4.59940
H          1.15880        2.72890        4.64850
H          0.88440        1.50310        6.75470
H          2.37690        1.01820        5.91470
H          1.21920       -0.93330        4.98420
H         -0.27330       -0.44830        5.82420
H          0.94480       -2.15910        7.09050
H          0.88440       -0.61820        7.97940
H          2.37690       -1.10320        7.13950
H          0.29550        1.63770       -1.95370
H          0.72360       -1.11440       -3.18580
H          1.91460        0.14140       -3.60140
H          0.35920        1.01120       -5.16210
H         -2.07170        0.83510       -4.85890
H         -1.29080       -1.02800       -2.57970
H         -2.11430        0.48440       -2.12940
H         -3.71560       -1.35200       -2.40800
H         -3.14830       -1.59330       -4.07780
H         -3.80380        0.70370       -4.63250
H         -4.37120        0.94510       -2.96280
