52
15_OxoETE
C          0.66940        3.67130       -2.81150
C          1.16940        2.25710       -2.81150
C          2.66940        2.25710       -2.81150
C          3.36150        1.26280       -2.23750
C          2.66110        0.11400       -1.57420
C          3.35320       -0.88030       -1.00020
C          2.65280       -2.02900       -0.33700
O          3.26660       -2.95120        0.19540
C          1.15400       -1.97810       -0.36640
C          0.65440       -1.25400        0.84860
C          1.10590       -1.97730        2.08260
C          0.55830       -3.37370        2.07240
C          1.00990       -4.09690        3.30650
C         -0.10260        4.13250       -1.81720
C         -0.49440        3.25110       -0.66850
C         -1.98910        3.13820       -0.61200
C         -2.59230        2.40110        0.33140
C         -1.79460        1.66230        1.36480
C         -2.08080        0.19350        1.26150
C         -3.54320       -0.04830        1.49170
C         -3.82940       -1.51710        1.38840
O         -4.93140       -1.92860        0.99610
O         -2.92810       -2.30650        1.70810
H          0.95160        4.30610       -3.63880
H          0.80610        1.74330       -1.92150
H          0.80610        1.74330       -3.70150
H          3.17380        3.08440       -3.28920
H          4.44180        1.26280       -2.23750
H          1.58080        0.11400       -1.57420
H          4.43350       -0.88030       -1.00020
H          0.82580       -1.45250       -1.26310
H          0.75600       -2.99280       -0.37380
H         -0.43480       -1.21700        0.82720
H          1.05230       -0.23930        0.85600
H          0.74290       -1.45110        2.96550
H          2.19510       -2.01430        2.10400
H          0.92130       -3.89980        1.18950
H         -0.53090       -3.33660        2.05100
H          0.61190       -5.11170        3.29900
H          0.64680       -3.57080        4.18930
H          2.09900       -4.13400        3.32780
H         -0.46260        5.15100       -1.81720
H         -0.12720        3.68290        0.26250
H         -0.06020        2.26080       -0.80580
H         -2.56360        3.67020       -1.35630
H         -3.66880        2.31980        0.37210
H         -0.73200        1.83810        1.19750
H         -2.06960        2.01710        2.35810
H         -1.50110       -0.34330        2.01240
H         -1.80580       -0.16130        0.26820
H         -4.12290        0.48850        0.74080
H         -3.81820        0.30650        2.48500
