52
15_OxoETE
C         -0.39810        0.91830        2.27580
C          0.10190       -0.49590        2.27580
C          1.60190       -0.49590        2.27580
C          2.29410        0.07820        1.28150
C          1.59370        0.74140        0.13280
C          2.28580        1.31550       -0.86160
C          1.58540        1.97870       -2.01030
O          0.36000        2.02550       -2.09140
C          2.47920        2.58100       -3.05350
C          2.77720        4.00650       -2.69410
C          3.46280        4.05320       -1.36080
C          4.74430        3.27670       -1.43000
C          5.63810        3.87900       -2.47320
C         -1.71120        1.18820        2.27580
C         -2.72830        0.08570        2.27580
C         -3.58710        0.19760        1.05110
C         -3.64710       -0.79730        0.15450
C         -2.85770       -2.05870        0.34350
C         -3.11710       -2.98770       -0.80520
C         -2.32770       -4.24910       -0.61630
C         -2.74120       -4.91050        0.66500
O         -3.21600       -6.05600        0.66980
O         -2.59280       -4.27450        1.71900
H          0.33450        1.71230        2.27580
H         -0.26140       -1.00970        3.16580
H         -0.26140       -1.00970        1.38580
H          2.10640       -0.97350        3.10310
H          3.37440        0.07820        1.28150
H          0.51340        0.74140        0.13280
H          3.36610        1.31550       -0.86150
H          3.41050        2.01670       -3.10380
H          1.98100        2.54710       -4.02240
H          1.84600        4.57080       -2.64380
H          3.42670        4.44420       -3.45220
H          2.81320        3.61550       -0.60270
H          3.67930        5.08910       -1.09960
H          4.52780        2.24080       -1.69120
H          5.24250        3.31060       -0.46110
H          6.56930        3.31470       -2.52350
H          5.85460        4.91480       -2.21210
H          5.13990        3.84500       -3.44210
H         -2.07130        2.20670        2.27580
H         -3.35240        0.16700        3.16580
H         -2.21940       -0.87820        2.27580
H         -4.15560        1.10610        0.91500
H         -4.26560       -0.71660       -0.72750
H         -1.79500       -1.81950        0.38450
H         -3.15820       -2.53930        1.27450
H         -2.81660       -2.50710       -1.73630
H         -4.17980       -3.22680       -0.84630
H         -1.26500       -4.00990       -0.57520
H         -2.51620       -4.92420       -1.45100
