52
15_OxoETE
C         -1.76020        2.75980        3.70210
C         -1.26020        1.34560        3.70210
C          0.23980        1.34560        3.70210
C          0.93190        0.35130        3.12800
C          0.23150       -0.79740        2.46480
C          0.92360       -1.79170        1.89070
C          0.22320       -2.94050        1.22750
O         -1.00220       -3.02160        1.18070
C          1.11710       -3.98370        0.62520
C          0.84720       -4.08390       -0.84690
C         -0.58650       -4.46600       -1.06750
C         -0.85640       -4.56630       -2.53960
C         -0.58650       -3.24130       -3.18880
C         -1.99090        3.41240        2.55390
C         -1.75740        2.75200        1.22750
C         -0.31650        2.35060        1.11550
C          0.14800        1.73790        0.01730
C         -0.75640        1.43150       -1.13950
C         -0.25010        2.12750       -2.36800
C          1.13740        1.64920       -2.67770
C          1.64370        2.34520       -3.90620
O          2.45140        1.79280       -4.66800
O          1.22840        3.49090       -4.13530
H         -1.92830        3.23540        4.65740
H         -1.62350        0.83180        4.59210
H         -1.62350        0.83180        2.81210
H          0.74420        2.17290        4.17970
H          2.01220        0.35130        3.12800
H         -0.84880       -0.79740        2.46480
H          2.00390       -1.79170        1.89070
H          2.15890       -3.70600        0.78550
H          0.92100       -4.94650        1.09700
H          1.49670       -4.84200       -1.28460
H          1.04330       -3.12110       -1.31870
H         -1.23600       -3.70800       -0.62980
H         -0.78260       -5.42890       -0.59570
H         -1.89810       -4.84400       -2.69990
H         -0.20680       -5.32440       -2.97730
H         -0.78260       -3.31420       -4.25850
H          0.45530       -2.96360       -3.02850
H         -1.23600       -2.48320       -2.75110
H         -2.35100        4.43090        2.55390
H         -2.00380        3.44890        0.42640
H         -2.38850        1.86700        1.14610
H          0.33480        2.57130        1.94870
H          1.18570        1.44890       -0.06340
H         -0.77320        0.35540       -1.31250
H         -1.76470        1.77910       -0.91450
H         -0.23330        3.20360       -2.19510
H         -0.90730        1.90480       -3.20870
H          1.12060        0.57310       -2.85070
H          1.79460        1.87180       -1.83710
