52
15_OxoETE
C          0.98810       -0.25030        1.28370
C          1.48810       -1.66450        1.28370
C          2.98810       -1.66450        1.28370
C          3.68030       -1.09050        0.28930
C          2.97990       -0.42730       -0.85940
C          3.67200        0.14680       -1.85370
C          2.97160        0.81000       -3.00240
O          1.74610        0.85690       -3.08360
C          3.86540        1.41230       -4.04560
C          3.59550        0.76310       -5.37070
C          2.16190        0.98370       -5.75280
C          1.89200        2.45580       -5.85300
C          0.45830        2.67640       -6.23510
C         -0.32500        0.01950        1.28370
C         -1.34220       -1.08300        1.28370
C         -2.58140       -0.62000        0.57650
C         -3.76380       -0.57950        1.20710
C         -3.89060       -0.99560        2.64260
C         -5.00010       -0.22210        3.29130
C         -5.12690       -0.63830        4.72680
C         -3.83860       -0.36100        5.44340
O         -3.63740        0.72870        6.00000
O         -2.98150       -1.25680        5.46110
H          1.72070        0.54370        1.28370
H          1.12480       -2.17840        2.17360
H          1.12480       -2.17840        0.39370
H          3.49260       -2.14220        2.11100
H          4.76050       -1.09050        0.28930
H          1.89960       -0.42720       -0.85940
H          4.75230        0.14680       -1.85370
H          3.66930        2.48210       -4.11850
H          4.90720        1.25200       -3.76800
H          3.79170       -0.30660       -5.29780
H          4.24510        1.20080       -6.12870
H          1.51240        0.54610       -4.99470
H          1.96580        0.51200       -6.71560
H          2.54150        2.89350       -6.61110
H          2.08810        2.92760       -4.89020
H          0.26220        3.74620       -6.30800
H         -0.19120        2.23880       -5.47710
H          0.26220        2.20470       -7.19800
H         -0.68510        1.03800        1.28370
H         -1.58850       -1.35000        2.31130
H         -0.93440       -1.95350        0.76980
H         -2.49010       -0.32030       -0.45730
H         -4.65620       -0.24600        0.69780
H         -4.11260       -2.06150        2.69370
H         -2.95440       -0.79410        3.16330
H         -5.93620       -0.42370        2.77050
H         -4.77810        0.84380        3.24020
H         -5.34890       -1.70420        4.77790
H         -5.93310       -0.07620        5.19810
