52
15_OxoETE
C         -0.46770        1.77200       -2.94230
C          0.03230        0.35780       -2.94230
C          1.53230        0.35780       -2.94230
C          2.22440       -0.63650       -2.36820
C          1.52400       -1.78520       -1.70500
C          2.21620       -2.77960       -1.13090
C          1.51580       -3.92830       -0.46770
O          0.29030       -4.00940       -0.42090
C          2.40960       -4.97150        0.13460
C          3.27540       -4.34190        1.18530
C          2.40960       -3.74680        2.25590
C          1.57190       -4.82430        2.87810
C          0.70610       -4.22910        3.94860
C         -1.63580        2.09310       -2.36820
C         -2.48540        1.04990       -1.70500
C         -3.72460        1.69050       -1.15370
C         -3.65050        2.66210       -0.23290
C         -2.32570        3.14380        0.27970
C         -2.25360        2.92520        1.76190
C         -0.92870        3.40690        2.27450
C         -0.77920        4.86950        1.97690
O         -0.10980        5.60780        2.71470
O         -1.34690        5.31620        0.96900
H          0.14420        2.52340       -3.41990
H         -0.33100       -0.15600       -2.05230
H         -0.33100       -0.15600       -3.83220
H          2.03670        1.18510       -3.41990
H          3.30470       -0.63650       -2.36820
H          0.44370       -1.78520       -1.70500
H          3.29640       -2.77960       -1.13090
H          1.80080       -5.75450        0.58670
H          3.03880       -5.40400       -0.64330
H          3.88420       -3.55890        0.73330
H          3.92490       -5.10000        1.62300
H          1.76010       -2.98870        1.81830
H          3.03870       -3.28930        3.01950
H          2.22140       -5.58240        3.31570
H          0.94270       -5.28180        2.11450
H          0.09730       -5.01220        4.40070
H          0.05650       -3.47110        3.51100
H          1.33520       -3.77160        4.71220
H         -1.99590        3.11160       -2.36820
H         -1.92430        0.58640       -0.89350
H         -2.76340        0.28970       -2.43500
H         -4.67880        1.34360       -1.52290
H         -4.54300        3.12350        0.16410
H         -1.52390        2.58980       -0.20870
H         -2.21700        4.20660        0.06340
H         -2.36220        1.86240        1.97820
H         -3.05530        3.47920        2.25030
H         -0.12700        2.85300        1.78610
H         -0.87630        3.24810        3.35160
