52
15_OxoETE
C         -2.74190        2.98230       -1.68330
C         -2.24190        1.56810       -1.68330
C         -0.74190        1.56810       -1.68330
C         -0.04980        0.41990       -1.68330
C         -0.75020       -0.90650       -1.68330
C         -0.05810       -2.05460       -1.68330
C         -0.75850       -3.38110       -1.68330
O         -1.98390       -3.47470       -1.68330
C          0.13540       -4.58570       -1.68330
C          1.00120       -4.56580       -2.90810
C          1.89500       -5.77040       -2.90810
C          2.76080       -5.75060       -4.13280
C          1.89510       -5.77040       -5.35760
C         -2.43140        3.82620       -0.68900
C         -1.57260        3.38690        0.45970
C         -2.33910        3.53150        1.74090
C         -1.71210        3.79150        2.89700
C         -0.22120        3.94730        2.95140
C          0.35620        2.91370        3.87230
C          1.84710        3.06950        3.92670
C          2.42460        2.03580        4.84760
O          3.64610        1.97040        5.05090
O          1.64080        1.24880        5.39890
H         -3.36040        3.29860       -2.51060
H         -2.60520        1.05420       -0.79330
H         -2.60520        1.05420       -2.57330
H         -0.23750        2.52340       -1.68330
H          1.03050        0.41990       -1.68330
H         -1.83050       -0.90650       -1.68330
H          1.02220       -2.05460       -1.68330
H          0.76450       -4.57130       -0.79330
H         -0.47340       -5.48980       -1.68330
H          1.61000       -3.66170       -2.90810
H          0.37200       -4.58020       -3.79810
H          1.28630       -6.67460       -2.90810
H          2.52420       -5.75600       -2.01810
H          3.41040       -6.62590       -4.13280
H          3.36960       -4.84640       -4.13280
H          2.52420       -5.75600       -6.24750
H          1.24550       -4.89510       -5.35760
H          1.28630       -6.67460       -5.35760
H         -2.79150        4.84470       -0.68900
H         -0.67630        4.00580        0.50080
H         -1.28790        2.34380        0.32240
H         -3.41290        3.41930        1.70180
H         -2.26420        3.89560        3.81980
H          0.19440        3.81670        1.95230
H          0.02680        4.94230        3.32090
H          0.10820        1.91860        3.50280
H         -0.05940        3.04430        4.87140
H          2.09520        4.06450        4.29620
H          2.26280        2.93880        2.92760
