52
15_OxoETE
C          1.19860        1.42210       -0.48110
C          1.69860        0.00790       -0.48110
C          3.19860        0.00790       -0.48110
C          3.89070       -0.56620        0.51320
C          3.19030       -1.22940        1.66190
C          3.88250       -1.80350        2.65620
C          3.18210       -2.46670        3.80500
O          3.79580       -2.99910        4.72710
C          1.68320       -2.43730        3.75400
C          1.12810       -3.13400        4.96080
C         -0.37070       -3.10460        4.90990
C         -0.92580       -3.80140        6.11670
C         -2.42470       -3.77200        6.06570
C          0.42670        1.88330       -1.47540
C          0.03490        1.00190       -2.62420
C         -1.25050        0.29980       -2.30000
C         -2.43470        0.84380       -2.61470
C         -2.51750        2.17420       -3.30240
C         -3.95670        2.53150       -3.52840
C         -4.03950        3.86200       -4.21620
C         -3.32960        3.78790       -5.53550
O         -3.68640        4.48800       -6.49470
O         -2.37420        3.00380       -5.63570
H          1.48080        2.05690        0.34620
H          1.33530       -0.50590        0.40890
H          1.33530       -0.50590       -1.37110
H          3.70300        0.48550       -1.30840
H          4.97100       -0.56620        0.51320
H          2.11000       -1.22940        1.66190
H          4.96270       -1.80350        2.65620
H          1.34030       -1.40270        3.74200
H          1.34030       -2.94420        2.85200
H          1.47100       -2.62710        5.86280
H          1.47100       -4.16860        4.97280
H         -0.71360       -3.61150        4.00790
H         -0.71360       -2.07000        4.89790
H         -0.58290       -3.29450        7.01870
H         -0.58290       -4.83600        6.12870
H         -2.82800       -4.27830        6.94270
H         -2.76760       -4.27890        5.16380
H         -2.76760       -2.73740        6.05370
H          0.06660        2.90180       -1.47540
H          0.81770        0.26400       -2.79950
H         -0.09870        1.60940       -3.51920
H         -1.19080       -0.65840       -1.80470
H         -3.36030        0.33810       -2.38120
H         -2.04770        2.93520       -2.67930
H         -2.00160        2.12040       -4.26110
H         -4.47250        2.58540       -2.56970
H         -4.42640        1.77060       -4.15160
H         -3.56970        4.62300       -3.59310
H         -5.08530        4.12170       -4.38040
