52
15_OxoETE
C          0.23430        1.40750       -1.74350
C          0.73430       -0.00670       -1.74350
C          2.23430       -0.00670       -1.74350
C          2.92640        0.56730       -0.74920
C          2.22600        1.23060        0.39960
C          2.91810        1.80460        1.39390
C          2.21770        2.46780        2.54260
O          0.99230        2.51470        2.62370
C          3.11160        3.07010        3.58580
C          4.39310        2.29360        3.65510
C          4.09510        0.86810        4.01440
C          5.37660        0.09160        4.08370
C          6.27050        0.69390        5.12690
C         -1.07890        1.67730       -1.74350
C         -2.09600        0.57480       -1.74350
C         -2.95470        0.68680       -2.96820
C         -3.94430       -0.18690       -3.20190
C         -4.22890       -1.30830       -2.24710
C         -5.38090       -2.12090       -2.75930
C         -5.66540       -3.24230       -1.80450
C         -4.45210       -4.11580       -1.68340
O         -3.58470       -3.89140       -0.82620
O         -4.34460       -5.06970       -2.46840
H          0.96680        2.20150       -1.74350
H          0.37100       -0.52060       -0.85350
H          0.37100       -0.52060       -2.63350
H          2.73870       -0.48440       -2.57080
H          4.00670        0.56730       -0.74920
H          1.14570        1.23060        0.39960
H          3.99840        1.80460        1.39390
H          3.32810        4.10600        3.32470
H          2.61340        3.03620        4.55470
H          5.04260        2.73130        4.41310
H          4.89130        2.32760        2.68620
H          3.44560        0.43040        3.25640
H          3.59690        0.83420        4.98330
H          5.87480        0.12550        3.11480
H          5.16010       -0.94430        4.34480
H          7.20170        0.12960        5.17720
H          5.77230        0.66000        6.09580
H          6.48700        1.72980        4.86570
H         -1.43900        2.69580       -1.74350
H         -2.72000        0.65620       -0.85350
H         -1.58700       -0.38910       -1.74350
H         -2.74980        1.49440       -3.65590
H         -4.56280       -0.10630       -4.08390
H         -3.34710       -1.94310       -2.15910
H         -4.48010       -0.89780       -1.26910
H         -5.12960       -2.53140       -3.73730
H         -6.26260       -1.48610       -2.84730
H         -6.50260       -3.83280       -2.17670
H         -5.91670       -2.83180       -0.82650
