49
gamma-Linolenic_acid
O         -3.38120        5.61590       -4.02300
C         -3.59470        4.86870       -3.05680
O         -4.37130        5.20170       -2.14930
C         -2.92190        3.53250       -2.94770
C         -2.73800        3.18190       -1.50080
C         -2.06520        1.84570       -1.39170
C         -1.88130        1.49510        0.05510
C         -1.03180        2.53840        0.71830
C          0.13640        2.21730        1.29240
C          0.63640        0.80310        1.29240
C          2.13640        0.80310        1.29240
C          2.82850       -0.19120        1.86640
C          2.12810       -1.34000        2.52970
C          2.51990       -2.62120        1.85520
C          2.84540       -2.64740        0.55490
C          3.23720       -3.92870       -0.11960
C          2.01440       -4.59380       -0.67840
C          1.05270       -4.88840        0.43450
C          1.70580       -5.79900        1.43170
C          0.74420       -6.09360        2.54450
H         -1.94920        3.57440       -3.43780
H         -3.53920        2.77440       -3.42960
H         -3.71070        3.14000       -1.01070
H         -2.12070        3.94000       -1.01890
H         -2.68250        1.08760       -1.87370
H         -1.09250        1.88760       -1.88190
H         -2.85400        1.45320        0.54520
H         -1.39240        0.52420        0.13440
H         -1.39190        3.55690        0.71830
H          0.74830        2.96860        1.77000
H          0.27310        0.28930        2.18230
H          0.27310        0.28930        0.40240
H          2.64080        1.63040        0.81470
H          3.90880       -0.19120        1.86640
H          1.04970       -1.20260        2.45040
H          2.41280       -1.38100        3.58100
H          2.53140       -3.52210        2.45120
H          2.83400       -1.74660       -0.04120
H          3.93600       -3.71460       -0.92830
H          3.71170       -4.59040        0.60500
H          2.29910       -5.52490       -1.16850
H          1.53980       -3.93210       -1.40300
H          0.16420       -5.37180        0.02850
H          0.76800       -3.95740        0.92460
H          1.99050       -6.73010        0.94150
H          2.59440       -5.31570        1.83770
H          1.21870       -6.75530        3.26910
H          0.45940       -5.16260        3.03470
H         -0.14440       -6.57700        2.13850
