49
gamma-Linolenic_acid
O         -1.69710        0.31070        6.28620
C         -1.70230        0.69910        5.10860
O         -0.92240        1.58240        4.72240
C         -2.65210        0.11560        4.10490
C         -3.53020        1.20150        3.55740
C         -2.68070        2.24480        2.89420
C         -1.90290        1.61870        1.77480
C         -1.05330        2.66190        1.11160
C          0.11480        2.34080        0.53750
C          0.61490        0.92660        0.53750
C          2.11490        0.92660        0.53750
C          2.80700       -0.06770       -0.03650
C          2.10660       -1.21650       -0.69970
C          2.49840       -1.27290       -2.14660
C          2.53450       -2.43800       -2.80890
C          2.92640       -2.49440       -4.25570
C          1.97390       -1.66450       -5.06440
C          0.58210       -2.19970       -4.90200
C         -0.37030       -1.36980       -5.71070
C         -1.76210       -1.90510       -5.54840
H         -3.26950       -0.64250        4.58690
H         -2.08690       -0.33940        3.29150
H         -4.09540        1.65650        4.37090
H         -4.22050        0.77750        2.82810
H         -3.31880        3.03390        2.49640
H         -1.99040        2.66870        3.62360
H         -1.26480        0.82960        2.17270
H         -2.59310        1.19470        1.04550
H         -1.41340        3.68040        1.11160
H          0.72670        3.09220        0.05990
H          0.25150        0.41280        1.42750
H          0.25150        0.41280       -0.35240
H          2.61930        1.75390        1.01520
H          3.88730       -0.06770       -0.03650
H          1.02820       -1.07910       -0.62050
H          2.39130       -2.14750       -0.20960
H          2.75050       -0.34430       -2.63750
H          2.28240       -3.36660       -2.31790
H          3.93770       -2.10550       -4.37370
H          2.89180       -3.52760       -4.60140
H          2.25870       -1.70550       -6.11570
H          2.00850       -0.63130       -4.71870
H          0.29740       -2.15870       -3.85070
H          0.54760       -3.23290       -5.24780
H         -0.33570       -0.33660       -5.36500
H         -0.08560       -1.41080       -6.76210
H         -2.45420       -1.30190       -6.13610
H         -1.79660       -2.93820       -5.89410
H         -2.04680       -1.86400       -4.49700
