49
gamma-Linolenic_acid
O         -3.73960        2.82820        3.07090
C         -2.83810        3.46410        2.50480
O         -1.71410        3.57470        3.01680
C         -3.07150        4.12440        1.17840
C         -2.12170        3.55910        0.16430
C         -2.34950        2.08220        0.03460
C         -1.39960        1.51690       -0.97940
C         -1.63310        2.17730       -2.30590
C         -1.40240        1.52480       -3.45400
C         -0.90240        0.11050       -3.45400
C          0.59760        0.11050       -3.45400
C          1.28970       -0.88380       -2.87990
C          0.58930       -2.03250       -2.21670
C          1.43890       -2.55710       -1.09730
C          1.39310       -3.84850       -0.74040
C          2.24270       -4.37320        0.37900
C          2.47620       -3.28320        1.38260
C          3.32570       -3.80780        2.50200
C          3.55920       -2.71780        3.50570
C          4.25960       -1.56900        2.84250
H         -2.90600        5.19760        1.27260
H         -4.09700        3.94180        0.85710
H         -1.09620        3.74170        0.48560
H         -2.29130        4.03900       -0.79950
H         -2.17980        1.60240        0.99850
H         -3.37490        1.89960       -0.28670
H         -0.37420        1.69950       -0.65810
H         -1.56520        0.44370       -1.07370
H         -1.99320        3.19580       -2.30590
H         -1.57050        2.00030       -4.40930
H         -1.26570       -0.40330       -2.56400
H         -1.26570       -0.40330       -4.34400
H          1.10200        0.93780       -3.93160
H          2.37000       -0.88380       -2.87990
H          0.41970       -2.82460       -2.94600
H         -0.36730       -1.69400       -1.81890
H          2.08880       -1.86040       -0.58810
H          0.74320       -4.54520       -1.24960
H          1.73370       -5.20790        0.86090
H          3.19940       -4.71170       -0.01890
H          1.51950       -2.94460        1.78050
H          2.98510       -2.44840        0.90070
H          4.28240       -4.14630        2.10420
H          2.81680       -4.64250        2.98400
H          2.60250       -2.37920        3.90360
H          4.17660       -3.09900        4.31910
H          4.42930       -0.77690        3.57180
H          5.21630       -1.90760        2.44460
H          3.64230       -1.18780        2.02910
