49
gamma-Linolenic_acid
O         -4.42760       -0.47160        1.32160
C         -3.23610       -0.23130        1.07650
O         -2.32970       -0.71190        1.77300
C         -2.84430        0.65010       -0.07220
C         -2.76690        2.07380        0.39370
C         -2.37510        2.95520       -0.75510
C         -1.03650        2.52730       -1.27970
C         -0.64470        3.40880       -2.42840
C          0.12720        2.94760       -3.42270
C          0.62720        1.53340       -3.42270
C          2.12720        1.53340       -3.42270
C          2.81940        0.53910       -2.84870
C          2.11900       -0.60970       -2.18540
C          2.51080       -0.66620       -0.73860
C          1.66770       -1.14210        0.18870
C          2.05950       -1.19860        1.63550
C          1.35910       -2.34730        2.29870
C          1.75090       -2.40380        3.74550
C          1.05050       -3.55250        4.40880
C          1.44230       -4.83370        3.73430
H         -3.58840        0.56690       -0.86430
H         -1.87160        0.33920       -0.45350
H         -2.02270        2.15690        1.18570
H         -3.73960        2.38470        0.77490
H         -3.11920        2.87200       -1.54710
H         -2.31890        3.98980       -0.41650
H         -0.29230        2.61050       -0.48760
H         -1.09270        1.49280       -1.61820
H         -1.00480        4.42730       -2.42840
H          0.40940        3.58240       -4.25000
H          0.26390        1.01950       -2.53270
H          0.26390        1.01950       -4.31270
H          2.63170        2.36070       -3.90040
H          3.89970        0.53910       -2.84870
H          2.40370       -1.54070       -2.67560
H          1.04060       -0.47240       -2.26470
H          3.49450       -0.31080       -0.46820
H          0.68400       -1.49740       -0.08170
H          3.13790       -1.33590        1.71480
H          1.77480       -0.26750        2.12560
H          1.64380       -3.27830        1.80860
H          0.28070       -2.21000        2.21940
H          1.46620       -1.47270        4.23570
H          2.82930       -2.54110        3.82480
H          1.33520       -3.59350        5.46010
H         -0.02790       -3.41520        4.32950
H          0.93340       -5.66840        4.21620
H          1.15760       -4.79270        2.68290
H          2.52070       -4.97100        3.81350
