49
gamma-Linolenic_acid
O         -3.89870        6.19940       -2.95280
C         -3.87450        5.10220       -3.53010
O         -4.86910        4.36180       -3.53980
C         -2.64100        4.62750       -4.23940
C         -1.78220        3.85230       -3.28470
C         -2.54880        2.67040       -2.76930
C         -1.69000        1.89520       -1.81450
C         -1.29820        2.77660       -0.66570
C         -0.52630        2.31550        0.32860
C         -0.02630        0.90120        0.32860
C          1.47370        0.90120        0.32860
C          2.16590       -0.24690        0.32860
C          1.46550       -1.57330        0.32860
C          1.85730       -2.34570        1.55330
C          1.01420       -3.22150        2.11840
C          1.40600       -3.99380        3.34320
C          2.61960       -4.82310        3.04430
C          3.01140       -5.59540        4.26910
C          4.22510       -6.42470        3.97020
C          3.91630       -7.37900        2.85490
H         -2.08400        5.48630       -4.61400
H         -2.92570        3.98700       -5.07420
H         -1.49750        4.49280       -2.44990
H         -0.88590        3.50730       -3.80010
H         -3.44510        3.01540       -2.25380
H         -2.83350        2.02990       -3.60400
H         -2.24700        1.03640       -1.43990
H         -0.79370        1.55020       -2.32990
H         -1.65830        3.79510       -0.66570
H         -0.24410        2.95030        1.15590
H         -0.38960        0.38740        1.21860
H         -0.38960        0.38740       -0.56140
H          1.97820        1.85650        0.32860
H          3.24620       -0.24690        0.32860
H          1.75020       -2.13450       -0.56140
H          0.38710       -1.41480        0.32860
H          2.84100       -2.17320        1.96520
H          0.03050       -3.39400        1.70660
H          1.63040       -3.30030        4.15370
H          0.58440       -4.64580        3.63980
H          3.44120       -4.17110        2.74770
H          2.39530       -5.51650        2.23380
H          2.18990       -6.24740        4.56570
H          3.23580       -4.90200        5.07960
H          5.04660       -5.77270        3.67360
H          4.50980       -6.98600        4.86020
H          4.79820       -7.98170        2.63770
H          3.09480       -8.03100        3.15150
H          3.63160       -6.81780        1.96490
