49
gamma-Linolenic_acid
O          0.27620       -2.35420       -6.13300
C         -0.59510       -1.48260       -5.99630
O         -1.30180       -1.12860       -6.95170
C         -0.82860       -0.82230       -4.66990
C         -0.60080        0.65460       -4.79960
C         -0.83420        1.31500       -3.47320
C         -2.24540        1.06370       -3.03100
C         -2.47890        1.72400       -1.70460
C         -2.24820        1.07150       -0.55640
C         -1.74820       -0.34270       -0.55640
C         -0.24820       -0.34270       -0.55640
C          0.44400       -0.34270        0.59170
C         -0.25640       -0.34270        1.91820
C          0.59310        0.36440        2.93220
C          1.82400       -0.07480        3.23100
C          2.67360        0.63230        4.24500
C          3.00650       -0.31050        5.36310
C          1.73970       -0.78190        6.01360
C          0.98960        0.39660        6.55990
C          1.83920        1.10370        7.57390
H         -0.13840       -1.23310       -3.93300
H         -1.85410       -1.00490       -4.34860
H         -1.29100        1.06540       -5.53640
H          0.42470        0.83720       -5.12090
H         -0.14400        0.90420       -2.73630
H         -0.66870        2.38820       -3.56740
H         -2.93560        1.47440       -3.76790
H         -2.41100       -0.00950       -2.93670
H         -2.83900        2.74250       -1.70460
H         -2.41630        1.54710        0.39890
H         -2.11150       -0.85660        0.33360
H         -2.11150       -0.85660       -1.44640
H          0.25630       -0.34270       -1.51170
H          1.52420       -0.34270        0.59170
H         -0.42610       -1.37040        2.23940
H         -1.21310        0.17110        1.82390
H          0.18080        1.23900        3.41390
H          2.23630       -0.94940        2.74930
H          3.59410        0.97490        3.77230
H          2.12850        1.48870        4.64200
H          3.62380        0.20330        6.10000
H          3.55160       -1.16690        4.96620
H          1.98160       -1.46700        6.82610
H          1.12240       -1.29570        5.27670
H          0.74770        1.08170        5.74730
H          0.06910        0.05410        7.03250
H          1.29410        1.96010        7.97080
H          2.08110        0.41860        8.38640
H          2.75970        1.44630        7.10120
