49
gamma-Linolenic_acid
O         -6.77850       -0.55890        3.32900
C         -5.95410       -0.44840        2.40930
O         -5.94370       -1.24580        1.45970
C         -4.93700        0.65410        2.40930
C         -3.69780        0.19110        3.11640
C         -2.68070        1.29360        3.11640
C         -2.34160        1.66110        1.70220
C         -1.32450        2.76360        1.70220
C         -0.01130        2.49370        1.70220
C          0.48870        1.07950        1.70220
C          1.98870        1.07950        1.70220
C          2.68080        0.08520        1.12810
C          1.98040       -1.06350        0.46490
C          2.83000       -1.58810       -0.65450
C          2.71430       -1.10090       -1.89810
C          3.56390       -1.62550       -3.01750
C          4.38620       -0.50780       -3.58720
C          5.23580       -1.03250       -4.70660
C          4.35450       -1.60160       -5.77870
C          3.44600       -0.52840       -6.30110
H         -5.34480        1.52460        2.92310
H         -4.69060        0.92110        1.38160
H         -3.29000       -0.67940        2.60250
H         -3.94410       -0.07600        4.14400
H         -3.08840        2.16410        3.63020
H         -1.78020        0.95720        3.63020
H         -1.93390        0.79060        1.18830
H         -3.24210        1.99750        1.18830
H         -1.68460        3.78210        1.70220
H          0.72120        3.28770        1.70220
H          0.12530        0.56570        2.59210
H          0.12530        0.56570        0.81220
H          2.49310        1.90680        2.17980
H          3.76110        0.08520        1.12810
H          1.02370       -0.72500        0.06700
H          1.81070       -1.85560        1.19420
H          3.53800       -2.37140       -0.42600
H          2.00620       -0.31770       -2.12660
H          4.22400       -2.40540       -2.63780
H          2.92350       -2.03910       -3.79660
H          5.02660       -0.09430       -2.80810
H          3.72610        0.27200       -3.96680
H          5.89590       -1.81230       -4.32690
H          5.83340       -0.22030       -5.12050
H          4.97190       -1.98280       -6.59210
H          3.75690       -2.41370       -5.36470
H          2.80570       -0.94190       -7.08020
H          2.82870       -0.14720       -5.48770
H          4.04360        0.28380       -6.71510
