49
gamma-Linolenic_acid
O         -0.12980        6.98230        3.84910
C         -0.50940        6.34020        2.85860
O         -1.22520        6.86390        1.99200
C         -0.11760        4.90460        2.66960
C          0.64900        4.76010        1.38840
C          1.04080        3.32450        1.19940
C         -0.19270        2.47280        1.14290
C         -1.05140        2.91210       -0.00580
C         -1.36200        2.06820       -1.00010
C         -0.86200        0.65400       -1.00010
C          0.63800        0.65400       -1.00010
C          1.33020       -0.34030       -0.42600
C          0.62980       -1.48900        0.23720
C          0.39630       -2.57910       -0.76650
C          0.91510       -3.80290       -0.59240
C          0.68160       -4.89290       -1.59610
C          0.68990       -6.22240       -0.90150
C          0.45650       -7.31240       -1.90510
C         -0.87190       -7.10380       -2.56990
C         -1.10540       -8.19390       -3.57350
H         -1.01390        4.28570        2.62860
H          0.50650        4.58540        3.50430
H          1.54530        5.37900        1.42940
H          0.02490        5.07930        0.55360
H          1.59780        3.21950        0.26840
H          1.66480        3.00530        2.03420
H          0.09210        1.42970        1.00560
H         -0.74970        2.57790        2.07400
H         -1.41150        3.93060       -0.00580
H         -1.98040        2.38460       -1.82740
H         -1.22530        0.14020       -0.11010
H         -1.22530        0.14020       -1.89010
H          1.14250        1.48130       -1.47780
H          2.41040       -0.34030       -0.42600
H         -0.32690       -1.15050        0.63500
H          1.24710       -1.87030        1.05060
H         -0.20350       -2.34580       -1.63420
H          1.51490       -4.03620        0.27520
H         -0.28370       -4.74140       -2.07910
H          1.47130       -4.87050       -2.34720
H         -0.09970       -6.24480       -0.15040
H          1.65530       -6.37390       -0.41840
H          0.46250       -8.27840       -1.40040
H          1.24610       -7.28990       -2.65620
H         -1.66150       -7.12630       -1.81880
H         -0.87790       -6.13780       -3.07460
H         -2.07070       -8.04230       -4.05660
H         -0.31580       -8.17140       -4.32460
H         -1.09940       -9.15990       -3.06880
