58
PGE1
C         -2.17710        0.48910       -1.81230
C         -0.67710        0.48910       -1.81230
C          0.01500       -0.50520       -2.38640
C          1.51500       -0.50520       -2.38640
O          1.97500        0.62150       -3.03690
C          2.01500       -0.50530       -0.97220
C          3.51500       -0.50530       -0.97220
C          4.01500       -1.73000       -1.67930
C          3.51500       -2.95470       -0.97220
C          4.01500       -4.17950       -1.67930
C         -2.69070       -0.28180       -3.04590
O         -3.91080        0.14220       -3.26080
C         -2.78250       -1.75080       -2.58330
C         -2.80170       -1.69190       -1.06330
O         -2.83620       -2.67850       -0.32130
C         -2.67370       -0.26470       -0.56990
C         -1.73300       -0.15250        0.59310
C         -2.28860       -0.91260        1.76070
C         -1.34800       -0.80040        2.92370
C         -1.18590        0.64300        3.29820
C         -0.24520        0.75530        4.46120
C         -0.08310        2.19870        4.83570
C          0.47250        2.95880        3.66800
O         -0.15560        3.51870        2.77660
O          1.82840        2.94660        3.72810
H         -2.49140        1.53400       -1.81230
H          1.87830       -1.39520       -2.90020
H         -1.92410       -0.22170       -3.81990
H         -3.66120        0.08860       -0.27310
H         -0.17270        1.31640       -1.33470
H         -0.48940       -1.33260       -2.86400
H          2.54310        1.22820       -2.48090
H          1.65170        0.38470       -0.45830
H          1.65170       -1.39520       -0.45830
H          3.87830        0.38470       -1.48600
H          3.87830       -0.50530        0.05550
H          5.10500       -1.73000       -1.67930
H          3.65170       -1.73000       -2.70690
H          3.87830       -2.95470        0.05550
H          2.42500       -2.95470       -0.97220
H          3.65170       -4.17950       -2.70690
H          3.65170       -5.06950       -1.16540
H          5.10500       -4.17950       -1.67930
H         -3.66820       -2.25460       -2.97040
H         -1.90410       -2.31320       -2.89580
H         -1.61520        0.89640        0.86520
H         -0.76350       -0.56740        0.31750
H         -3.25820       -0.49760        2.03630
H         -2.40640       -1.96150        1.48860
H         -1.75170       -1.35280        3.77220
H         -0.37840       -1.21530        2.64820
H         -0.78210        1.19540        2.44970
H         -2.15540        1.05800        3.57380
H          0.72440        0.34030        4.18560
H         -0.64890        0.20290        5.30970
H          0.60050        2.28030        5.68080
H         -1.05260        2.61370        5.11120
H          2.16520        3.42730        2.98930
