58
PGE1
C         -1.40320        0.80160       -1.70090
C          0.09680        0.80160       -1.70090
C          0.78890        1.79600       -1.12680
C          2.28890        1.79600       -1.12680
O          2.74890        1.14540       -2.25350
C          2.78890        3.21020       -1.12680
C          2.28890        3.91730       -2.35150
C          2.78890        5.33150       -2.35150
C          2.28890        6.03860       -1.12680
C          2.78890        7.45280       -1.12680
C         -1.91680        0.03070       -2.93440
O         -3.13690        0.45470       -3.14930
C         -2.00860       -1.43820       -2.47180
C         -2.02770       -1.37930       -0.95180
O         -2.06230       -2.36600       -0.20980
C         -1.89980        0.04790       -0.45850
C         -0.95910        0.16010        0.70450
C         -1.51470       -0.60000        1.87220
C         -0.57400       -0.48780        3.03520
C         -1.12960       -1.24800        4.20280
C         -1.29170       -2.69140        3.82830
C          0.04250       -3.26240        3.44920
C         -0.11960       -4.70590        3.07470
O          0.75550       -5.48470        2.71360
O         -1.42540       -5.05670        3.19290
H         -1.71740        1.84660       -1.70090
H          2.65230        1.28210       -0.23680
H         -1.15020        0.09090       -3.70840
H         -2.88730        0.40110       -0.16160
H          0.60120       -0.02570       -2.17850
H          0.28450        2.62330       -0.64910
H          3.31700        1.70150       -2.86020
H          2.42560        3.72400       -0.23680
H          3.87890        3.21020       -1.12680
H          2.65230        3.40350       -3.24150
H          1.19890        3.91730       -2.35150
H          2.42560        5.84530       -3.24150
H          3.87890        5.33150       -2.35150
H          1.19890        6.03860       -1.12680
H          2.65230        5.52480       -0.23680
H          3.87890        7.45280       -1.12680
H          2.42560        7.96660       -0.23680
H          2.42560        7.96660       -2.01680
H         -2.89420       -1.94210       -2.85900
H         -1.13020       -2.00070       -2.78440
H         -0.84130        1.20900        0.97660
H          0.01040       -0.25490        0.42900
H         -2.48420       -0.18510        2.14770
H         -1.63250       -1.64890        1.60010
H          0.39550       -0.90280        2.75960
H         -0.45620        0.56110        3.30730
H         -0.44610       -1.16640        5.04790
H         -2.09920       -0.83300        4.47840
H         -1.97530       -2.77290        2.98330
H         -1.69550       -3.24380        4.67690
H          0.72600       -3.18090        4.29420
H          0.44620       -2.71010        2.60060
H         -1.51390       -5.96550        2.95490
