58
PGE1
C         -2.33110        2.13310       -0.90770
C         -0.83110        2.13310       -0.90770
C         -0.13900        1.13880       -1.48180
C          1.36100        1.13880       -1.48180
O          1.82100        0.48830       -0.35500
C          1.86100        0.43170       -2.70650
C          1.36100        1.13880       -3.93120
C          1.86100        0.43170       -5.15600
C          3.36100        0.43170       -5.15600
C          3.86100       -0.27540       -6.38070
C         -2.89450        1.38720       -2.13120
O         -3.01060        2.24150       -3.11380
C         -4.29790        0.93120       -1.70020
C         -4.19220        0.80460       -0.18910
O         -5.02290        0.24480        0.53130
C         -2.91650        1.44160        0.33060
C         -2.00490        0.36520        0.84090
C         -2.61890       -0.27930        2.04820
C         -1.70730       -1.35570        2.55840
C         -0.38410       -0.75540        2.93070
C          0.52750       -1.83170        3.44100
C          1.85070       -1.23140        3.81330
C          2.76240       -2.30770        4.32360
O          3.53960       -2.99650        3.67220
O          2.60840       -2.42740        5.66680
H         -2.65130        3.17730       -0.90770
H          1.72430        2.16650       -1.48180
H         -2.30070        0.47700       -2.23990
H         -3.12340        2.14560        1.13510
H         -0.32670        2.96040       -0.43000
H         -0.64340        0.31150       -1.95940
H          2.38910       -0.31510       -0.53320
H          2.95100        0.43170       -2.70650
H          1.49770       -0.59590       -2.70650
H          0.27100        1.13880       -3.93120
H          1.72430        2.16650       -3.93120
H          1.49770        0.94550       -6.04600
H          1.49770       -0.59590       -5.15600
H          3.72430        1.45940       -5.15600
H          3.72430       -0.08210       -4.26600
H          3.49770       -1.30310       -6.38070
H          4.95100       -0.27540       -6.38070
H          3.49770        0.23840       -7.27070
H         -5.05170        1.68390       -1.93120
H         -4.58770       -0.00750       -2.16980
H         -1.04330        0.80140        1.11140
H         -1.85780       -0.38490        0.06380
H         -2.76600        0.47080        2.82520
H         -3.58050       -0.71560        1.77760
H         -2.15350       -1.82410        3.43570
H         -1.56020       -2.10580        1.78140
H          0.06210       -0.28700        2.05340
H         -0.53120       -0.00520        3.70780
H          0.67460       -2.58180        2.66390
H          0.08130       -2.30010        4.31830
H          1.70360       -0.48130        4.59030
H          2.29700       -0.76300        2.93600
H          3.18640       -3.10650        5.97500
