58
PGE1
C         -0.88400        1.32560       -2.07490
C          0.61600        1.32560       -2.07490
C          1.30820        0.17750       -2.07490
C          2.80820        0.17750       -2.07490
O          3.26820        0.82800       -0.94810
C          3.30820       -1.23670       -2.07490
C          4.80820       -1.23670       -2.07490
C          5.30820       -2.65090       -2.07490
C          4.80820       -3.35800       -3.29960
C          5.30820       -4.77220       -3.29960
C         -1.39750        0.55470       -3.30840
O         -2.61760        0.97870       -3.52330
C         -1.48930       -0.91420       -2.84580
C         -1.50850       -0.85530       -1.32580
O         -1.54300       -1.84200       -0.58380
C         -1.38050        0.57190       -0.83250
C         -0.43990        0.68410        0.33050
C         -0.99550       -0.07600        1.49820
C         -2.32970        0.49500        1.87740
C         -2.88530       -0.26510        3.04510
C         -4.21950        0.30590        3.42420
C         -4.05740        1.74930        3.79870
C         -3.11670        1.86160        4.96170
O         -3.40060        1.84220        6.15410
O         -1.84690        1.99400        4.50120
H         -1.19820        2.37060       -2.07490
H          3.17150        0.69130       -2.96480
H         -0.63090        0.61490       -4.08240
H         -2.36810        0.92510       -0.53560
H          1.12050        2.28090       -2.07490
H          0.80370       -0.77780       -2.07490
H          3.83630        0.27200       -0.34140
H          2.94480       -1.75050       -1.18490
H          2.94480       -1.75050       -2.96480
H          5.17150       -0.72290       -2.96480
H          5.17150       -0.72290       -1.18490
H          4.94480       -3.16480       -1.18490
H          6.39820       -2.65090       -2.07490
H          3.71820       -3.35800       -3.29960
H          5.17150       -2.84420       -4.18960
H          6.39820       -4.77220       -3.29960
H          4.94480       -5.28610       -4.18960
H          4.94480       -5.28610       -2.40960
H         -2.37500       -1.41810       -3.23300
H         -0.61100       -1.47670       -3.15840
H         -0.32210        1.73300        0.60260
H          0.52970        0.26920        0.05500
H         -1.11330       -1.12490        1.22610
H         -0.31190        0.00550        2.34330
H         -2.21190        1.54390        2.14950
H         -3.01320        0.41350        1.03230
H         -3.00310       -1.31400        2.77290
H         -2.20170       -0.18360        3.89010
H         -4.62330       -0.24650        4.27280
H         -4.90310        0.22440        2.57920
H         -5.02690        2.16430        4.07430
H         -3.65370        2.30170        2.95020
H         -1.26580        2.06360        5.24130
