58
PGE1
C         -1.89300       -1.66390       -0.87720
C         -0.39300       -1.66390       -0.87720
C          0.29910       -0.66960       -1.45130
C          1.79910       -0.66960       -1.45130
O          2.25910       -1.79640       -2.10180
C          2.29910        0.55510       -2.15840
C          3.79910        0.55510       -2.15840
C          4.29910        1.77990       -2.86550
C          3.79910        3.00460       -2.15840
C          4.29910        4.22940       -2.86550
C         -2.40660       -2.43490       -2.11080
O         -3.62670       -2.01090       -2.32570
C         -2.49840       -3.90380       -1.64820
C         -2.51760       -3.84490       -0.12820
O         -2.55210       -4.83160        0.61380
C         -2.38960       -2.41770        0.36520
C         -1.44890       -2.30550        1.52810
C         -1.28680       -0.86200        1.90260
C         -0.34620       -0.74980        3.06560
C         -0.18410        0.69360        3.44010
C          0.37160        1.45380        2.27240
C          0.53370        2.89720        2.64690
C         -0.80050        3.46820        3.02610
O         -1.74840        2.87610        3.52970
O         -0.82480        4.79150        2.72490
H         -2.20730       -0.61900       -0.87720
H          2.16240       -0.66960       -0.42360
H         -1.64000       -2.37470       -2.88480
H         -3.37720       -2.06450        0.66200
H          0.11140       -2.49120       -0.39960
H         -0.20530        0.15770       -1.92890
H          2.82720       -1.61820       -2.90530
H          1.93570        0.55510       -3.18610
H          1.93570        1.44510       -1.64460
H          4.16240        0.55510       -1.13070
H          4.16240       -0.33490       -2.67220
H          3.93570        1.77990       -3.89320
H          5.38910        1.77990       -2.86550
H          2.70910        3.00460       -2.15840
H          4.16240        3.00460       -1.13070
H          5.38910        4.22940       -2.86550
H          3.93570        5.11930       -2.35170
H          3.93570        4.22940       -3.89320
H         -3.38410       -4.40760       -2.03540
H         -1.62000       -4.46630       -1.96070
H         -0.47940       -2.72040        1.25260
H         -1.85270       -2.85780        2.37670
H         -0.88310       -0.30970        1.05410
H         -2.25640       -0.44710        2.17820
H         -0.74990       -1.30220        3.91410
H          0.62340       -1.16480        2.79010
H         -1.15360        1.10860        3.71560
H          0.49950        0.77520        4.28520
H         -0.31200        1.37220        1.42730
H          1.34110        1.03880        1.99690
H          0.93740        3.44960        1.79840
H          1.21720        2.97870        3.49200
H         -1.66800        5.13830        2.96790
