58
PGE1
C         -0.90250        1.23210       -0.79580
C          0.59750        1.23210       -0.79580
C          1.28970        2.22640       -1.36990
C          2.78970        2.22640       -1.36990
O          3.24970        1.57590       -2.49660
C          3.28970        3.64060       -1.36990
C          2.78960        4.34780       -2.59460
C          3.28960        5.76200       -2.59460
C          2.78960        6.46910       -3.81940
C          1.28960        6.46910       -3.81930
C         -1.46580        0.48610       -2.01930
O         -1.58190        1.34040       -3.00190
C         -2.86920        0.03020       -1.58830
C         -2.76350       -0.09640       -0.07720
O         -3.59420       -0.65620        0.64320
C         -1.48780        0.54050        0.44250
C         -0.57620       -0.53590        0.95280
C         -1.19030       -1.18040        2.16000
C         -0.27870       -2.25680        2.67030
C         -0.89270       -2.90130        3.87760
C         -2.21590       -3.50170        3.50530
C         -2.01350       -4.53390        2.43600
C         -1.10190       -5.61030        2.94620
O         -0.32460       -6.29900        2.29490
O         -1.25580       -5.72990        4.28940
H         -1.22260        2.27630       -0.79580
H          3.15300        1.71260       -0.47990
H         -0.87210       -0.42400       -2.12800
H         -1.69480        1.24460        1.24700
H          1.10200        0.40480       -0.31810
H          0.78520        3.05370       -1.84750
H          3.81780        2.13190       -3.10330
H          2.92630        4.15450       -0.47990
H          4.37970        3.64060       -1.36990
H          3.15300        3.83390       -3.48460
H          1.69970        4.34780       -2.59460
H          4.37960        5.76200       -2.59460
H          2.92630        6.27580       -1.70460
H          3.15300        7.49670       -3.81940
H          3.15300        5.95520       -4.70930
H          0.92630        5.44140       -3.81930
H          0.92630        6.98290       -4.70930
H          0.92630        6.98290       -2.92940
H         -3.62310        0.78280       -1.81930
H         -3.15910       -0.90860       -2.05790
H          0.38530       -0.09960        1.22330
H         -0.42910       -1.28600        0.17570
H         -1.33740       -0.43030        2.93710
H         -2.15180       -1.61660        1.88950
H         -0.13160       -3.00690        1.89330
H          0.68290       -1.82050        2.94090
H         -0.23030       -3.68340        4.24840
H         -1.03980       -2.15120        4.65460
H         -2.87840       -2.71950        3.13450
H         -2.66210       -3.97000        4.38260
H         -1.56730       -4.06560        1.55870
H         -2.97500       -4.97020        2.16540
H         -0.67790       -6.40910        4.59760
