58
PGE1
C         -1.95190        2.00410       -0.09980
C         -0.45190        2.00410       -0.09980
C          0.24020        1.43000       -1.09410
C          1.74020        1.43000       -1.09410
O          2.20020        0.30320       -0.44360
C          2.24020        1.43000       -2.50840
C          3.74020        1.43000       -2.50840
C          4.24020        2.65470       -1.80120
C          3.74020        3.87950       -2.50840
C          4.24020        5.10420       -1.80120
C         -2.51520        1.25810       -1.32330
O         -2.63130        2.11240       -2.30600
C         -3.91860        0.80210       -0.89230
C         -3.81300        0.67550        0.61880
O         -4.64360        0.11580        1.33920
C         -2.53720        1.31250        1.13850
C         -1.62560        0.23610        1.64870
C         -2.23970       -0.40840        2.85600
C         -1.32810       -1.48480        3.36630
C         -1.12560       -2.51710        2.29690
C         -0.21400       -3.59350        2.80720
C         -0.01160       -4.62570        1.73790
C          0.60250       -3.98120        0.53060
O          0.13900       -3.06800       -0.14330
O          1.79730       -4.56840        0.26670
H         -2.27200        3.04820       -0.09980
H          2.10360        2.32000       -0.58030
H         -1.92150        0.34790       -1.43200
H         -2.74420        2.01660        1.94290
H          0.05250        2.48170        0.72750
H         -0.26420        0.95230       -1.92140
H          1.91390        0.21980        0.51090
H          1.87690        0.54000       -3.02220
H          1.87690        2.32000       -3.02220
H          4.10360        0.54000       -1.99450
H          4.10360        1.43000       -3.53600
H          5.33020        2.65470       -1.80120
H          3.87690        2.65470       -0.77360
H          4.10360        3.87950       -3.53600
H          2.65020        3.87950       -2.50840
H          3.87690        5.10420       -0.77360
H          3.87690        5.99420       -2.31510
H          5.33020        5.10420       -1.80120
H         -4.67250        1.55480       -1.12340
H         -4.20850       -0.13660       -1.36190
H         -0.66410        0.67240        1.91930
H         -1.47850       -0.51400        0.87170
H         -2.38680        0.34170        3.63310
H         -3.20120       -0.84470        2.58550
H         -0.36650       -1.04850        3.63680
H         -1.77430       -1.95320        4.24360
H         -2.08720       -2.95330        2.02640
H         -0.67940       -2.04870        1.41970
H         -0.66020       -4.06180        3.68450
H          0.74750       -3.15720        3.07780
H         -0.97310       -5.06200        1.46730
H          0.65080       -5.40790        2.10870
H          2.17270       -4.15470       -0.49370
