58
PGE1
C         -0.67430        1.82840       -1.67260
C          0.82570        1.82840       -1.67260
C          1.51780        2.40250       -2.66690
C          3.01780        2.40240       -2.66690
O          3.47780        3.52920       -3.31750
C          3.51780        2.40240       -1.25270
C          5.01780        2.40240       -1.25270
C          5.51780        2.40240        0.16150
C          5.01780        1.17770        0.86860
C          5.51780       -0.04700        0.16150
C         -1.23770        1.08240       -2.89610
O         -1.35380        1.93670       -3.87870
C         -2.64110        0.62640       -2.46510
C         -2.53540        0.49980       -0.95400
O         -3.36610       -0.05990       -0.23360
C         -1.25970        1.13680       -0.43430
C         -0.34810        0.06040        0.07600
C         -0.96210       -0.58410        1.28320
C         -0.05050       -1.66050        1.79350
C         -0.66460       -2.30500        3.00080
C         -1.98780       -2.90540        2.62850
C         -2.60180       -3.54990        3.83580
C         -3.92510       -4.15030        3.46350
O         -4.70050       -3.76450        2.59600
O         -4.16580       -5.22990        4.25000
H         -0.99450        2.87250       -1.67260
H          3.38110        1.51250       -3.18070
H         -0.64390        0.17220       -3.00480
H         -1.46660        1.84090        0.37020
H          1.33010        1.35070       -0.84530
H          1.01340        2.88010       -3.49420
H          4.04590        4.13590       -2.76140
H          3.15450        3.29240       -0.73890
H          3.15450        1.51250       -0.73890
H          5.38110        1.51250       -1.76650
H          5.38110        3.29240       -1.76650
H          5.15450        3.29240        0.67530
H          6.60780        2.40240        0.16150
H          5.38110        1.17770        1.89630
H          3.92780        1.17770        0.86860
H          5.15450       -0.04700       -0.86610
H          5.15450       -0.93700        0.67530
H          6.60780       -0.04700        0.16150
H         -3.39490        1.37910       -2.69610
H         -2.93090       -0.31230       -2.93470
H          0.61350        0.49670        0.34650
H         -0.20100       -0.68970       -0.70110
H         -1.10920        0.16600        2.06030
H         -1.92370       -1.02040        1.01270
H          0.09660       -2.41060        1.01650
H          0.91100       -1.22420        2.06400
H         -0.00210       -3.08720        3.37160
H         -0.81170       -1.55490        3.77780
H         -1.84070       -3.65550        1.85140
H         -2.65020       -2.12320        2.25770
H         -2.74890       -2.79980        4.61280
H         -1.93940       -4.33210        4.20660
H         -4.99970       -5.59790        4.00620
