58
PGE1
C         -0.72890        0.28650       -1.90110
C          0.77110        0.28650       -1.90110
C          1.46320        0.28650       -3.04920
C          2.96320        0.28650       -3.04920
O          3.42320       -1.01450       -3.04920
C          3.46320        0.99360       -4.27400
C          2.96320        2.40790       -4.27400
C          3.46320        3.11500       -3.04920
C          4.96320        3.11500       -3.04920
C          5.46320        3.82210       -1.82450
C         -1.29220       -0.45940       -3.12460
O         -1.40840        0.39490       -4.10720
C         -2.69570       -0.91540       -2.69360
C         -2.59000       -1.04200       -1.18250
O         -3.42070       -1.60180       -0.46210
C         -1.31430       -0.40510       -0.66280
C         -0.40260       -1.48140       -0.15250
C         -1.01670       -2.12600        1.05480
C         -1.21910       -1.09370        2.12410
C         -1.83320       -1.73820        3.33140
C         -2.03560       -0.70600        4.40070
C         -2.64970       -1.35050        5.60800
C         -2.85210       -0.31820        6.67730
O         -3.84080        0.38360        6.85770
O         -1.74420       -0.25800        7.45910
H         -1.04910        1.33070       -1.90110
H          3.32650        0.80040       -2.15920
H         -0.69850       -1.36960       -3.23330
H         -1.52120        0.29900        0.14170
H          1.27550        0.28650       -0.94580
H          0.95880        0.28650       -4.00450
H          3.99130       -1.26190       -3.83410
H          4.55320        0.99360       -4.27400
H          3.09990        0.47980       -5.16390
H          3.32650        2.92170       -5.16390
H          1.87320        2.40790       -4.27400
H          3.09990        2.60110       -2.15920
H          3.09990        4.14260       -3.04920
H          5.32650        2.08730       -3.04920
H          5.32650        3.62880       -3.93920
H          5.09990        4.84970       -1.82450
H          6.55320        3.82210       -1.82450
H          5.09990        3.30820       -0.93450
H         -3.44950       -0.16270       -2.92460
H         -2.98550       -1.85410       -3.16320
H          0.55890       -1.04520        0.11800
H         -0.25550       -2.23150       -0.92960
H         -1.97820       -2.56220        0.78420
H         -0.35430       -2.90810        1.42560
H         -0.25760       -0.65740        2.39460
H         -1.88160       -0.31150        1.75330
H         -2.79470       -2.17450        3.06080
H         -1.17070       -2.52040        3.70220
H         -2.69810        0.07620        4.02990
H         -1.07410       -0.26970        4.67130
H         -1.98720       -2.13260        5.97880
H         -3.61120       -1.78670        5.33750
H         -1.88400        0.39390        8.12670
