54
5-HETE
C         -5.98170       -0.48400        5.94770
O         -5.78820       -1.67840        5.33280
O         -6.74410       -0.33180        6.89550
C         -5.13220        0.55930        5.28450
C         -4.35440       -0.06680        4.16510
C         -3.50480        0.97640        3.50190
C         -2.72700        0.35030        2.38250
O         -1.91910       -0.64870        2.88620
C         -1.87740        1.39360        1.71930
C         -0.70930        1.07250        1.14520
C          0.14030        2.11570        0.48200
C          1.30850        1.79460       -0.09200
C          1.80850        0.38040       -0.09200
C          3.30850        0.38040       -0.09200
C          4.00060        0.38040       -1.24020
C          3.30020        0.38040       -2.56660
C          4.14970        1.08750       -3.58060
C          4.10400        0.75090       -4.87750
C          3.20160       -0.34510       -5.36170
C          3.93410       -1.65320       -5.31490
C          5.14700       -1.57890       -6.19440
C          4.72490       -1.29250       -7.60500
C          5.93770       -1.21820       -8.48450
H         -3.41720       -0.07370        1.65320
H         -6.32730       -2.32510        5.75870
H         -4.44190        0.98330        6.01390
H         -5.77020        1.34840        4.88670
H         -3.71630       -0.85590        4.56300
H         -5.04460       -0.49080        3.43580
H         -4.14290        1.76550        3.10410
H         -2.81460        1.40040        4.23130
H         -2.23750        2.41210        1.71930
H         -0.34920        0.05400        1.14520
H         -0.21980        3.13420        0.48200
H          1.92030        2.54600       -0.56970
H          1.44510       -0.13340       -0.98200
H          1.44510       -0.13340        0.79790
H          3.81290        0.38040        0.86320
H          5.08090        0.38040       -1.24020
H          2.34350        0.89430       -2.47240
H          3.13050       -0.64720       -2.88790
H          4.79960        1.87690       -3.23190
H          4.71590        1.26020       -5.60780
H          2.32030       -0.39910       -4.72260
H          2.89490       -0.13690       -6.38680
H          3.27840       -2.44960       -5.66680
H          4.24080       -1.86140       -4.28980
H          5.80270       -0.78250       -5.84250
H          5.67920       -2.52950       -6.16030
H          4.19260       -0.34190       -7.63900
H          4.06910       -2.08890       -7.95690
H          6.47000       -2.16870       -8.45040
H          5.63100       -1.01000       -9.50950
H          6.59350       -0.42170       -8.13260
