54
5-HETE
C         -5.11320       -1.82450       -1.00900
O         -5.88850       -1.72050        0.10020
O         -5.26060       -2.70220       -1.85200
C         -4.09610       -0.72200       -1.00900
C         -3.23740       -0.83400        0.21580
C         -4.09610       -0.72200        1.44050
C         -3.23740       -0.83400        2.66520
O         -4.02740       -0.73100        3.79200
C         -2.22020        0.26850        2.66520
C         -0.90710       -0.00130        2.66520
C          0.11010        1.10120        2.66520
C          1.42320        0.83130        2.66520
C          1.92320       -0.58290        2.66520
C          3.42320       -0.58290        2.66520
C          4.11540       -0.58290        1.51710
C          3.41500       -0.58290        0.19070
C          4.43210       -0.58290       -0.91180
C          4.47940        0.41140       -1.80980
C          3.51700        1.56020       -1.74470
C          3.27040        2.08480       -3.12820
C          4.56550        2.55070       -3.72450
C          4.31880        3.07530       -5.10800
C          5.61390        3.54120       -5.70430
H         -2.72840       -1.79790        2.66520
H         -6.52320       -2.41860        0.08830
H         -4.60510        0.24180       -1.00900
H         -3.47210       -0.80340       -1.89900
H         -2.72840       -1.79790        0.21580
H         -2.49830       -0.03290        0.21580
H         -4.60510        0.24180        1.44050
H         -4.83520       -1.52320        1.44050
H         -2.58030        1.28700        2.66520
H         -0.54700       -1.01980        2.66520
H         -0.25000        2.11970        2.66520
H          2.15580        1.62530        2.66520
H          1.55990       -1.09670        1.77530
H          1.55990       -1.09670        3.55520
H          3.92770       -0.58290        3.62050
H          5.19560       -0.58290        1.51710
H          2.79090        0.30710        0.10930
H          2.79090       -1.47290        0.10930
H          5.12520       -1.41020       -0.95870
H          5.21190        0.41140       -2.60380
H          2.57590        1.22160       -1.31130
H          3.93810        2.35220       -1.12550
H          2.57100        2.91950       -3.08090
H          2.84940        1.29270       -3.74740
H          4.98650        3.34280       -3.10530
H          5.26480        1.71590       -3.77180
H          3.61950        3.91000       -5.06070
H          3.89780        2.28320       -5.72720
H          6.31320        2.70650       -5.75160
H          5.43460        3.92240       -6.70970
H          6.03490        4.33330       -5.08510
