54
5-HETE
C          2.46600        1.69290        3.79090
O          2.12330        2.98530        3.55730
O          3.35540        1.11240        3.17890
C          1.59750        1.13820        4.88090
C          0.82530       -0.03590        4.35630
C         -0.03340        0.40340        3.20760
C         -0.98840        1.46210        3.67350
O         -1.78740        0.95180        4.67630
C         -1.84720        1.90140        2.52470
C         -2.15770        1.05750        1.53040
C         -3.01650        1.49680        0.38170
C         -3.32700        0.65290       -0.61260
C         -2.82700       -0.76140       -0.61260
C         -1.32700       -0.76140       -0.61260
C         -0.63490       -1.75570       -1.18670
C         -1.33530       -2.90440       -1.84990
C         -1.56880       -2.58020       -3.29570
C         -0.54450       -2.32250       -4.12140
C          0.87230       -2.34900       -3.62950
C          1.49820       -1.00140       -3.83490
C          1.48230       -0.66010       -5.29540
C          2.25740       -1.69300       -6.05870
C          2.24150       -1.35170       -7.51930
H         -0.42730        2.31530        4.05470
H          2.67600        3.32210        2.87080
H          0.90350        1.90760        5.21950
H          2.22160        0.81900        5.71570
H          1.51930       -0.80520        4.01770
H          0.19430       -0.43890        5.14840
H          0.59770        0.80650        2.41550
H         -0.59450       -0.44980        2.82640
H         -2.20730        2.91990        2.52470
H         -1.79760        0.03900        1.53040
H         -3.37660        2.51530        0.38170
H         -3.94550        0.96920       -1.43990
H         -3.19040       -1.27520       -1.50260
H         -3.19040       -1.27520        0.27740
H         -0.82260        0.06590       -0.13500
H          0.44540       -1.75570       -1.18670
H         -2.29200       -3.07970       -1.35780
H         -0.71800       -3.79950       -1.77330
H         -2.58910       -2.56110       -3.65000
H         -0.71260       -2.08900       -5.16270
H          0.88380       -2.59700       -2.56810
H          1.43550       -3.09960       -4.18410
H          2.52770       -1.02070       -3.47740
H          0.93500       -0.25090       -3.28020
H          0.45280       -0.64090       -5.65290
H          1.93710        0.31910       -5.44470
H          1.80260       -2.67220       -5.90940
H          3.28690       -1.71220       -5.70120
H          2.69630       -0.37240       -7.66850
H          2.80470       -2.10220       -8.07390
H          1.21200       -1.33240       -7.87670
