54
5-HETE
C          1.79660        2.32320       -5.85490
O          0.63030        2.92970       -6.19280
O          2.84810        2.93200       -5.69210
C          1.56880        0.84630       -5.72520
C          0.15760        0.59500       -5.28300
C         -0.07590        1.25540       -3.95660
C         -1.48700        1.00410       -3.51450
O         -2.36090        1.52410       -4.44740
C         -1.72050        1.66440       -2.18800
C         -1.48980        1.01190       -1.03990
C         -1.72330        1.67220        0.28660
C         -1.49250        1.01970        1.43470
C         -0.99250       -0.39450        1.43470
C          0.50750       -0.39450        1.43470
C          1.19960       -1.38880        2.00880
C          0.49920       -2.53760        2.67200
C          1.51630       -3.49240        3.22320
C          1.98560       -3.35880        4.47190
C          1.51070       -2.24980        5.36320
C          0.31290       -2.71060        6.13980
C         -0.16200       -1.60150        7.03120
C         -1.35980       -2.06230        7.80770
C         -2.45550       -2.44380        6.85710
H         -1.65260       -0.06920       -3.42020
H          0.78680        3.85690       -6.27120
H          2.25900        0.43550       -4.98830
H          1.73840        0.36640       -6.68910
H         -0.53260        1.00580       -6.01990
H         -0.00800       -0.47820       -5.18880
H          0.61440        0.84460       -3.21980
H          0.08970        2.32860       -4.05090
H         -2.08060        2.68290       -2.18800
H         -1.12970       -0.00660       -1.03990
H         -2.08330        2.69070        0.28660
H         -1.66070        1.49530        2.39000
H         -1.35590       -0.90840        0.54470
H         -1.35590       -0.90840        2.32470
H          1.01190        0.43280        0.95710
H          2.27990       -1.38880        2.00880
H         -0.12490       -3.05300        1.94190
H         -0.12490       -2.16310        3.48340
H          1.85830       -4.29110        2.58130
H          2.71810       -4.04650        4.86890
H          2.30690       -1.97260        6.05400
H          1.23960       -1.38630        4.75580
H          0.58390       -3.57410        6.74720
H         -0.48340       -2.98780        5.44900
H          0.63430       -1.32430        7.72200
H         -0.43300       -0.73800        6.42370
H         -1.70490       -1.25640        8.45540
H         -1.08870       -2.92590        8.41520
H         -2.11040       -3.24970        6.20940
H         -3.32590       -2.77860        7.42140
H         -2.72660       -1.58030        6.24970
