54
5-HETE
C         -0.89420        2.10740        5.14730
O          0.04700        2.48680        4.24600
O         -0.64000        1.86080        6.32090
C         -2.23270        2.04970        4.47280
C         -2.04890        1.69920        3.02600
C         -3.38740        1.64150        2.35150
C         -3.20360        1.29090        0.90470
O         -2.58460        0.06160        0.80430
C         -2.35400        2.33420        0.24150
C         -1.18580        2.01310       -0.33260
C         -0.33630        3.05630       -0.99580
C          0.83190        2.73520       -1.56990
C          1.33190        1.32100       -1.56990
C          2.83190        1.32100       -1.56990
C          3.52400        0.32670       -2.14400
C          2.82360       -0.82200       -2.80720
C          3.67320       -2.05380       -2.70180
C          3.11980       -3.27360       -2.64660
C          1.63090       -3.45110       -2.68820
C          1.26000       -4.28590       -3.87800
C         -0.22890       -4.46350       -3.91960
C         -0.68600       -5.14860       -2.66600
C         -2.17490       -5.32620       -2.70760
H         -4.17630        1.24900        0.41460
H          0.88320        2.51920        4.68210
H         -2.72170        3.02070        4.55210
H         -2.85010        1.29160        4.95480
H         -1.43150        2.45730        2.54410
H         -1.55990        0.72820        2.94670
H         -4.00480        0.88340        2.83340
H         -3.87640        2.61250        2.43080
H         -2.71410        3.35270        0.24150
H         -0.82570        0.99460       -0.33260
H         -0.69640        4.07480       -0.99580
H          1.44370        3.48660       -2.04750
H          0.96850        0.80720       -2.45990
H          0.96850        0.80720       -0.67990
H          3.33630        2.14830       -1.09230
H          4.60430        0.32670       -2.14400
H          2.65390       -0.58650       -3.85780
H          1.86690       -0.99730       -2.31510
H          4.74540       -1.92590       -2.67190
H          3.73160       -4.16070       -2.57080
H          1.29880       -3.94900       -1.77730
H          1.15070       -2.47560       -2.76490
H          1.74020       -5.26140       -3.80130
H          1.59210       -3.78800       -4.78900
H         -0.70910       -3.48800       -3.99630
H         -0.49850       -5.07010       -4.78420
H         -0.41640       -4.54200       -1.80140
H         -0.20580       -6.12410       -2.58930
H         -2.44440       -5.93280       -3.57210
H         -2.50700       -5.82410       -1.79660
H         -2.65510       -4.35070       -2.78420
