54
5-HETE
C         -2.03270        4.96390        5.16530
O         -1.03830        5.88560        5.22780
O         -3.22120        5.25040        5.25470
C         -1.43510        3.60110        4.97630
C         -1.94050        3.00680        3.69510
C         -1.34290        1.64400        3.50620
C         -1.84820        1.04980        2.22490
O         -1.29850       -0.20400        2.05110
C         -1.45640        1.93120        1.07620
C         -0.68450        1.47000        0.08190
C         -0.29260        2.35140       -1.06680
C          0.47930        1.89020       -2.06120
C          0.97930        0.47600       -2.06120
C          2.47930        0.47600       -2.06120
C          3.17140       -0.67210       -2.06120
C          2.47100       -1.99850       -2.06120
C          2.86280       -2.77090       -3.28590
C          2.36900       -3.99510       -3.51960
C          1.40660       -4.63710       -2.56480
C          0.49110       -5.55510       -3.31930
C          1.30030       -6.61690       -4.00320
C          0.38490       -7.53490       -4.75770
C         -0.37740       -6.74900       -5.78310
H         -2.93440        0.96780        2.26600
H         -1.42680        6.73730        5.34660
H         -1.71990        2.96060        5.81110
H         -0.34900        3.68310        4.93530
H         -3.02660        2.92480        3.73620
H         -1.65570        3.64730        2.86040
H         -0.25680        1.72600        3.46510
H         -1.62760        1.00350        4.34090
H         -1.81650        2.94970        1.07620
H         -0.32440        0.45150        0.08190
H         -0.65270        3.36990       -1.06680
H          0.76150        2.52500       -2.88850
H          0.61600       -0.03780       -2.95110
H          0.61600       -0.03780       -1.17120
H          2.98370        1.43130       -2.06120
H          4.25170       -0.67210       -2.06120
H          1.39260       -1.84000       -2.06120
H          2.75570       -2.55980       -1.17120
H          3.55590       -2.30850       -3.97350
H          2.65120       -4.55130       -4.40160
H          1.96050       -5.20820       -1.81970
H          0.81860       -3.86550       -2.06780
H         -0.06280       -4.98400       -4.06440
H         -0.20820       -6.02160       -2.62550
H          1.99960       -6.15040       -4.69700
H          1.85420       -7.18800       -3.25810
H         -0.31450       -8.00150       -4.06390
H          0.97290       -8.30650       -5.25470
H          0.32200       -6.28250       -6.47690
H         -1.04260       -7.41610       -6.33130
H         -0.96540       -5.97740       -5.28610
