54
5-HETE
C         -3.83930       -1.14230       -2.91670
O         -4.18370       -2.08720       -2.00520
O         -4.19290       -1.17970       -4.08990
C         -2.98970       -0.09900       -2.25350
C         -2.60720        0.94710       -3.25820
C         -1.75770        1.99030       -2.59500
C         -2.52980        2.62820       -1.47830
O         -3.66990        3.21760       -1.98550
C         -1.68030        3.67140       -0.81510
C         -0.51210        3.35030       -0.24100
C          0.33750        4.39360        0.42220
C          1.50560        4.07250        0.99630
C          2.00560        2.65830        0.99630
C          3.50560        2.65830        0.99630
C          4.19770        1.66390        1.57030
C          3.49730        0.51520        2.23360
C          3.26390       -0.57480        1.22990
C          3.22610       -1.86210        1.60230
C          3.41590       -2.25930        3.03630
C          3.32470       -3.75150        3.15810
C          1.97670       -4.21030        2.68640
C          1.88550       -5.70250        2.80820
C          0.53750       -6.16120        2.33650
H         -2.80780        1.86800       -0.74820
H         -4.71710       -2.73660       -2.43430
H         -2.08920       -0.56460       -1.85290
H         -3.55090        0.36450       -1.44210
H         -2.04610        0.48360       -4.06960
H         -3.50770        1.41260       -3.65870
H         -0.85720        1.52480       -2.19440
H         -1.47970        2.75050       -3.32500
H         -2.04040        4.68990       -0.81510
H         -0.15200        2.33180       -0.24100
H         -0.02260        5.41210        0.42220
H          2.11750        4.82380        1.47390
H          1.64230        2.14440        0.10630
H          1.64230        2.14440        1.88630
H          4.01000        3.48560        0.51860
H          5.27800        1.66390        1.57030
H          2.54070        0.85380        2.63140
H          4.11470        0.13400        3.04700
H          3.12720       -0.28880        0.19720
H          3.05790       -2.64710        0.87950
H          4.39540       -1.92590        3.37900
H          2.64050       -1.79680        3.64710
H          3.46260       -4.04020        4.20010
H          4.10010       -4.21400        2.54730
H          1.20130       -3.74780        3.29720
H          1.83880       -3.92160        1.64440
H          2.02340       -5.99110        3.85020
H          2.66090       -6.16500        2.19740
H          0.39960       -5.87260        1.29450
H          0.47130       -7.24560        2.42500
H         -0.23790       -5.69880        2.94730
