54
5-HETE
C          2.99600       -0.17070        4.32410
O          2.99440        1.10420        4.78980
O          3.90650       -0.63880        3.65000
C          1.74050       -0.86220        4.76630
C          0.63500        0.14330        4.89600
C          0.40150        0.80360        3.56960
C         -0.70400        1.80910        3.69930
O         -1.85910        1.17290        4.10610
C         -0.93750        2.46950        2.37290
C         -0.70670        1.81690        1.22470
C         -0.94020        2.47730       -0.10170
C         -0.70950        1.82480       -1.24990
C         -0.20950        0.41050       -1.24990
C          1.29050        0.41050       -1.24990
C          1.98260       -0.58380       -1.82390
C          1.28220       -1.73250       -2.48710
C          1.04870       -1.40830       -3.93300
C         -0.19100       -1.36680       -4.44150
C         -1.38970       -1.64310       -3.58320
C         -2.47870       -2.24210       -4.42310
C         -2.85450       -1.28260       -5.51310
C         -3.94350       -1.88160       -6.35300
C         -5.14220       -2.15790       -5.49470
H         -0.42530        2.56250        4.43620
H          3.78820        1.52770        4.50530
H          1.91010       -1.34210        5.73020
H          1.46180       -1.61550        4.02940
H         -0.27740       -0.35920        5.21730
H          0.91360        0.89660        5.63290
H          1.31390        1.30610        3.24830
H          0.12290        0.05030        2.83270
H         -1.29760        3.48800        2.37290
H         -0.34670        0.79840        1.22470
H         -1.30030        3.49580       -0.10170
H         -0.87770        2.30030       -2.20510
H         -0.57280       -0.10330       -2.13980
H         -0.57280       -0.10330       -0.35990
H          1.79490        1.23780       -0.77220
H          3.06290       -0.58380       -1.82390
H          0.32560       -1.90780       -1.99500
H          1.89960       -2.62760       -2.41060
H          1.91210       -1.20940       -4.55110
H         -0.35910       -1.13330       -5.48280
H         -1.11660       -2.34030       -2.79120
H         -1.74270       -0.71130       -3.14130
H         -3.34980       -2.44280       -3.79940
H         -2.12570       -3.17390       -4.86510
H         -3.20750       -0.35080       -5.07120
H         -1.98340       -1.08180       -6.13680
H         -3.59050       -2.81340       -6.79490
H         -4.21660       -1.18440       -7.14510
H         -5.49520       -1.22610       -5.05280
H         -5.93350       -2.59320       -6.10500
H         -4.86910       -2.85510       -4.70270
