54
5-HETE
C         -5.58410       -1.36580       -2.21610
O         -4.97520       -2.57500       -2.31140
O         -5.91380       -0.70060       -3.19160
C         -5.76800       -1.01520       -0.76930
C         -4.42940       -0.95750       -0.09480
C         -3.57990        0.08570       -0.75800
C         -2.24130        0.14340       -0.08350
O         -2.41040        0.46600        1.24760
C         -1.39170        1.18670       -0.74670
C         -0.22360        0.86560       -1.32080
C          0.62600        1.90880       -1.98400
C          1.79410        1.58770       -2.55810
C          2.29410        0.17350       -2.55810
C          3.79410        0.17350       -2.55810
C          4.48630        0.17350       -1.41000
C          3.78590        0.17350       -0.08350
C          4.63540       -0.53360        0.93050
C          4.22890       -0.66850        2.20080
C          2.90970       -0.11730        2.65440
C          2.71890       -0.41300        4.11260
C          3.82470        0.22420        4.90080
C          3.80200        1.70830        4.68450
C          2.48270        2.25960        5.13810
H         -1.75240       -0.82760       -0.16280
H         -4.86550       -2.78370       -3.22510
H         -6.38530       -1.77330       -0.28740
H         -6.25690       -0.04420       -0.69000
H         -4.56300       -0.70270        0.95660
H         -3.94050       -1.92850       -0.17410
H         -3.44630       -0.16900       -1.80940
H         -4.06880        1.05670       -0.67870
H         -1.75180        2.20520       -0.74670
H          0.13650       -0.15290       -1.32080
H          0.26590        2.92730       -1.98400
H          2.40600        2.33910       -3.03580
H          1.93080       -0.34030       -3.44810
H          1.93080       -0.34030       -1.66810
H          4.29860        0.17350       -3.51340
H          5.56660        0.17350       -1.41000
H          2.82920       -0.34030       -0.17780
H          3.61620        1.20120        0.23780
H          5.58550       -0.93060        0.60380
H          4.84070       -1.17780        2.93110
H          2.89310        0.96120        2.49720
H          2.10610       -0.58030        2.08170
H          2.73550       -1.49150        4.26980
H          1.76030       -0.01240        4.44220
H          3.68610        0.00930        5.96040
H          4.78340       -0.17640        4.57120
H          3.94060        1.92320        3.62490
H          4.60550        2.17140        5.25720
H          2.34410        2.04470        6.19760
H          2.46620        3.33810        4.98090
H          1.67920        1.79660        4.56530
