57
7R_Maresin1
C         -4.50490        3.22660       -5.52150
C         -5.20530        3.22660       -4.19510
C         -4.35570        2.51950       -3.18110
C         -5.05610        2.51950       -1.85460
C         -4.36400        2.51950       -0.70650
C         -2.86400        2.51950       -0.70650
C         -2.36400        1.29480        0.00060
O         -2.82400        1.29480        1.30170
C         -0.86400        1.29480        0.00060
C         -0.17190        2.44290        0.00060
C          1.32810        2.44290        0.00060
C          2.02020        1.29480        0.00060
C          3.52020        1.29480        0.00060
C          4.21230        0.14660        0.00060
C          3.51190       -1.17980        0.00060
O          2.30080       -1.06040        0.65120
C          4.36150       -2.19380        0.70770
C          4.59500       -1.75170        2.12190
C          4.19730       -2.50490        3.15720
C          3.50430       -3.81720        2.93900
C          3.17730       -4.43660        4.26540
C          2.55230       -5.62020        4.34140
C          2.15730       -6.36820        3.10260
C          0.77510       -5.95720        2.68970
O         -4.20600        4.28860       -6.08760
O         -4.23450        2.13010       -6.03350
H         -2.72730        0.40480       -0.51320
H          3.34230       -1.50110       -1.02700
H         -5.37490        4.25430       -3.87380
H         -6.16190        2.71280       -4.28940
H         -3.39910        3.03340       -3.08680
H         -4.18610        1.49190       -3.50240
H         -6.13640        2.51950       -1.85460
H         -4.86840        2.51950        0.24880
H         -2.50070        3.40950       -0.19270
H         -2.50070        2.51950       -1.73410
H         -3.39210        2.07970        1.54910
H         -0.35960        0.33950        0.00060
H         -0.67630        3.39820        0.00060
H          1.83250        3.39820        0.00060
H          1.51580        0.33950        0.00060
H          4.02470        2.25010        0.00060
H          5.29260        0.14660        0.00060
H          2.19310       -1.64600        1.45460
H          5.31820       -2.28810        0.19390
H          3.85250       -3.15770        0.70770
H          5.09400       -0.80650        2.27910
H          4.36540       -2.18650        4.17570
H          2.58440       -3.65340        2.37780
H          4.15840       -4.48460        2.37780
H          3.46170       -3.89790        5.15750
H          2.31670       -6.06620        5.29660
H          2.85920       -6.13940        2.30070
H          2.17280       -7.43930        3.30450
H          0.07320       -6.18600        3.49170
H          0.48800       -6.50080        1.78960
H          0.75950       -4.88620        2.48790
