57
7R_Maresin1
C         -4.72570        2.72000        3.64320
C         -5.42610        2.72000        2.31680
C         -5.65950        1.30580        1.87460
C         -6.36000        1.30570        0.54820
C         -5.66780        1.30570       -0.60000
C         -4.16780        1.30570       -0.60000
C         -3.66780        2.53050       -1.30710
O         -4.12780        2.53050       -2.60810
C         -2.16780        2.53050       -1.30710
C         -1.47570        1.38240       -1.30710
C          0.02430        1.38240       -1.30710
C          0.71640        0.23420       -1.30710
C          2.21640        0.23420       -1.30710
C          2.90850       -0.91390       -1.30710
C          2.20810       -2.24040       -1.30710
O          0.99690       -2.12100       -0.65650
C          3.05770       -3.25440       -0.60000
C          4.37420       -3.38410       -1.30710
C          5.48930       -3.71200       -0.63900
C          5.46100       -3.96110        0.83990
C          6.78580       -3.58650        1.43540
C          7.25860       -2.33560        1.34020
C          6.48000       -1.26510        0.63460
C          7.28800       -0.73210       -0.51120
O         -4.89630        3.63970        4.45720
O         -3.97050        1.77040        3.89920
H         -4.03120        3.42050       -0.79320
H          2.03850       -2.56170       -2.33470
H         -6.38270        3.23380        2.41100
H         -4.80870        3.23380        1.57990
H         -6.27690        0.79190        2.61150
H         -4.70290        0.79190        1.78030
H         -7.44020        1.30570        0.54820
H         -6.17230        1.30570       -1.55530
H         -3.80450        0.41580       -1.11380
H         -3.80450        1.30580        0.42770
H         -3.84150        3.31540       -3.15760
H         -1.66340        3.48580       -1.30710
H         -1.98010        0.42710       -1.30710
H          0.52870        2.33760       -1.30710
H          0.21200       -0.72110       -1.30710
H          2.72080        1.18950       -1.30710
H          3.98880       -0.91390       -1.30710
H          0.88920       -2.70660        0.14690
H          2.54870       -4.21830       -0.60000
H          3.22730       -2.93310        0.42770
H          4.39450       -3.20470       -2.37220
H          6.43740       -3.80550       -1.14830
H          4.67480       -3.35870        1.29480
H          5.26410       -5.01680        1.02680
H          7.34650       -4.35750        1.94360
H          8.21260       -2.06580        1.76910
H          5.54670       -1.68330        0.25760
H          6.26030       -0.45640        1.33160
H          8.22130       -0.31390       -0.13420
H          6.72220        0.04580       -1.02390
H          7.50760       -1.54080       -1.20820
