57
7R_Maresin1
C         -4.30490        6.46330        2.60100
C         -3.44610        5.31450        3.04030
C         -4.21260        4.03330        2.89570
C         -3.35390        2.88460        3.33500
C         -3.04340        1.89030        2.49110
C         -3.54340        1.89030        1.07690
C         -3.04340        0.66550        0.36980
O         -3.50340       -0.46120        1.02030
C         -1.54340        0.66550        0.36980
C         -0.85120        1.81370        0.36980
C          0.64880        1.81370        0.36980
C          1.34090        0.66550        0.36980
C          2.84090        0.66550        0.36980
C          3.53300       -0.48260        0.36980
C          2.83260       -1.80910        0.36980
O          3.61420       -2.74200        1.02030
C          2.59910       -2.25120       -1.04440
C          1.89870       -3.57760       -1.04440
C          2.08320       -4.45770       -2.03870
C          2.99670       -4.14800       -3.18750
C          3.58990       -5.42200       -3.71210
C          3.92690       -5.54820       -5.00350
C          3.72300       -4.42010       -5.97090
C          4.76310       -4.49200       -7.04920
O         -5.03630        7.05990        3.40520
O         -4.25960        6.79680        1.40760
H         -3.40670        0.66550       -0.65790
H          1.87590       -1.71480        0.88360
H         -2.54980        5.27350        2.42140
H         -3.16140        5.45190        4.08350
H         -4.49740        3.89600        1.85260
H         -5.10900        4.07440        3.51460
H         -2.99380        2.88460        4.35350
H         -2.42490        1.06300        2.80750
H         -3.18000        2.78030        0.56310
H         -4.63340        1.89030        1.07690
H         -4.07150       -0.28300        1.82380
H         -1.03890       -0.28980        0.36980
H         -1.35570        2.76900        0.36980
H          1.15320        2.76900        0.36980
H          0.83650       -0.28980        0.36980
H          3.34530        1.62080        0.36980
H          4.61330       -0.48260        0.36980
H          3.82170       -2.52770        1.97480
H          3.55580       -2.34550       -1.55820
H          1.98180       -1.51430       -1.55820
H          1.24080       -3.80070       -0.21710
H          1.57880       -5.41300       -2.03870
H          2.43100       -3.65750       -3.97950
H          3.79520       -3.48790       -2.84890
H          3.73670       -6.23450       -3.01540
H          4.35410       -6.46570       -5.38130
H          2.73140       -4.49840       -6.41670
H          3.81060       -3.46970       -5.44440
H          5.75470       -4.41360       -6.60340
H          4.61500       -3.67220       -7.75220
H          4.67560       -5.44240       -7.57570
