57
7R_Maresin1
C         -4.70070        2.24090       -3.84630
C         -3.84190        1.28620       -3.07110
C         -4.60850        0.77080       -1.88920
C         -3.74970       -0.18400       -1.11400
C         -3.43920        0.04960        0.16900
C         -3.93920        1.27440        0.87610
C         -3.43920        1.27440        2.29040
O         -3.89920        2.40120        2.94090
C         -1.93920        1.27440        2.29040
C         -1.24710        2.42250        2.29040
C          0.25290        2.42250        2.29040
C          0.94500        1.27440        2.29040
C          2.44500        1.27440        2.29040
C          3.13720        0.12630        2.29040
C          2.43680       -1.20020        2.29040
O          2.79720       -1.91070        3.41710
C          2.82860       -1.97250        1.06560
C          4.31260       -2.19070        1.06560
C          4.99740       -2.29140       -0.08250
C          4.30440       -2.18950       -1.40900
C          5.31070       -2.33750       -2.51150
C          4.96850       -2.86740       -3.69440
C          3.56680       -3.33160       -3.95850
C          2.99610       -2.56600       -5.11530
O         -4.27660        2.79650       -4.87050
O         -5.84850        2.45660       -3.42950
H         -3.80250        0.38440        2.80420
H          1.35840       -1.04160        2.29040
H         -3.55720        0.45140       -3.71160
H         -2.94560        1.80160       -2.72610
H         -5.50480        0.25530       -2.23420
H         -4.89320        1.60550       -1.24870
H         -3.38960       -1.06610       -1.62330
H         -2.82070       -0.63800        0.72730
H         -5.02920        1.27440        0.87610
H         -3.57590        2.16440        0.36230
H         -3.61280        2.48460        3.89540
H         -1.43480        0.31910        2.29040
H         -1.75150        3.37780        2.29040
H          0.75740        3.37780        2.29040
H          0.44060        0.31910        2.29040
H          2.94950        2.22970        2.29040
H          4.21750        0.12630        2.29040
H          3.24240       -2.78820        3.23890
H          2.54390       -1.41130        0.17560
H          2.31960       -2.93640        1.06560
H          4.81170       -2.26410        2.02090
H          6.06620       -2.44850       -0.08250
H          3.55760       -2.97920       -1.49030
H          3.81650       -1.21820       -1.49030
H          6.32020       -2.00310       -2.32120
H          5.69320       -2.97390       -4.48840
H          3.57500       -4.39550       -4.19560
H          2.95470       -3.16150       -3.07280
H          2.98790       -1.50210       -4.87820
H          1.97760       -2.90330       -5.30720
H          3.60820       -2.73610       -6.00100
