57
7R_Maresin1
C         -1.73100        0.55090        5.40080
C         -2.12280        1.88860        4.84670
C         -2.30670        1.78040        3.36200
C         -2.69850        3.11810        2.80780
C         -3.47050        3.21580        1.71620
C         -3.97050        1.99110        1.00900
C         -3.47050        1.99110       -0.40520
O         -3.93050        0.86430       -1.05570
C         -1.97050        1.99110       -0.40520
C         -1.27830        0.84290       -0.40520
C          0.22170        0.84290       -0.40520
C          0.91380       -0.30520       -0.40520
C          2.41380       -0.30520       -0.40520
C          3.10590       -1.45330       -0.40520
C          2.40550       -2.77980       -0.40520
O          3.18710       -3.71270        0.24540
C          2.17200       -3.22190       -1.81940
C          3.48850       -3.35170       -2.52650
C          4.02610       -2.31450       -3.18420
C          3.33060       -0.98650       -3.23690
C          1.98780       -1.15070       -3.88510
C          1.16700       -0.10390       -4.05150
C          1.56140        1.26970       -3.59570
C          0.33340        2.04140       -3.21330
O         -2.43090       -0.02000        6.25050
O         -0.68450        0.03460        4.98160
H         -3.83380        2.88110       -0.91900
H          1.44880       -2.68550        0.10870
H         -3.05680        2.21260        5.30580
H         -1.34000        2.61530        5.06390
H         -3.08960        1.05370        3.14480
H         -1.37270        1.45640        2.90290
H         -2.33840        4.00010        3.31710
H         -3.75270        4.17920        1.31710
H         -5.06050        1.99110        1.00900
H         -3.60710        1.10110        1.52290
H         -3.64410        0.78090       -2.01020
H         -1.46600        2.94640       -0.40520
H         -1.78280       -0.11230       -0.40520
H          0.72610        1.79820       -0.40520
H          0.40940       -1.26050       -0.40520
H          2.91820        0.65010       -0.40520
H          4.18620       -1.45330       -0.40520
H          3.39460       -3.49840        1.19980
H          1.55470       -2.48510       -2.33320
H          1.66310       -4.18580       -1.81940
H          3.98940       -4.30800       -2.48850
H          4.97420       -2.40790       -3.69350
H          3.20100       -0.60380       -2.22460
H          3.93050       -0.28490       -3.81660
H          1.70370       -2.13990       -4.21330
H          0.20000       -0.22220       -4.51830
H          2.22380        1.19020       -2.73370
H          2.07810        1.78640       -4.40450
H         -0.32890        2.12090       -4.07530
H          0.62000        3.03950       -2.88210
H         -0.18330        1.52470       -2.40450
