54
8-HETE
C         -1.05130       -2.49460        0.24720
C         -1.36180       -3.33840        1.24150
C         -2.22050       -2.89920        2.39020
C         -2.99270       -4.07330        2.91480
C         -2.03770       -5.13200        3.38070
C         -1.16920       -4.57730        4.47070
O         -1.50570       -4.65920        5.66140
O         -0.10390       -4.03430        4.14240
C         -1.55130       -1.08030        0.24720
C         -1.05130       -0.37320        1.47190
O         -1.51130        0.92780        1.47190
C          0.44870       -0.37320        1.47190
C          1.14090        0.20080        0.47760
C          2.64090        0.20080        0.47760
C          3.33300        0.77490       -0.51670
C          2.63260        1.43810       -1.66550
C          3.64970        1.98940       -2.62030
C          3.27510        2.63300       -3.73500
C          1.82530        2.82530       -4.06810
C          1.52330        4.29180       -4.15870
C          0.07350        4.48410       -4.49180
C         -0.22850        5.95060       -4.58230
C         -1.67840        6.14290       -4.91540
H         -1.41460       -0.88710        2.36190
H         -0.43280       -2.81090       -0.58020
H         -1.00170       -4.35700        1.24150
H         -1.58950       -2.49610        3.18230
H         -2.91450       -2.12980        2.05160
H         -3.62380       -4.47630        2.12270
H         -3.61680       -3.75410        3.74960
H         -2.59880       -5.98520        3.76190
H         -1.41370       -5.45120        2.54600
H         -2.64130       -1.08030        0.24720
H         -1.18790       -0.56650       -0.64280
H         -2.07940        1.17520        0.68700
H          0.95320       -0.85090        2.29920
H          0.63640        0.67850       -0.34970
H          3.14530       -0.27680        1.30490
H          4.41330        0.77490       -0.51670
H          2.00850        0.70810       -2.18090
H          2.00860        2.24960       -1.29090
H          4.69390        1.85090       -2.38040
H          4.00760        3.03000       -4.42270
H          1.21060        2.37520       -3.28860
H          1.60580        2.34950       -5.02390
H          2.13800        4.74190       -4.93820
H          1.74270        4.76760       -3.20290
H         -0.14600        4.00830       -5.44760
H         -0.54120        4.03410       -3.71220
H         -0.00910        6.42650       -3.62660
H          0.38620        6.40070       -5.36190
H         -2.29310        5.69290       -4.13590
H         -1.89780        7.20860       -4.98120
H         -1.89780        5.66710       -5.87120
