54
8-HETE
C         -2.09430        0.07710       -3.31280
C         -2.40490       -0.36210       -4.54080
C         -3.26360       -1.57660       -4.73480
C         -2.39520       -2.79790       -4.79940
C         -1.44010       -2.67200       -5.94920
C         -0.57170       -3.89330       -6.01390
O         -0.56350       -4.62060       -7.01820
O          0.13780       -4.15200       -5.03040
C         -2.59430       -0.63000       -2.08810
C         -2.09430        0.07710       -0.86330
O         -2.55430        1.37810       -0.86330
C         -0.59430        0.07710       -0.86330
C          0.09780        0.65110        0.13100
C          1.59780        0.65110        0.13100
C          2.28990        1.22520        1.12530
C          1.58950        1.88840        2.27400
C          1.35600        0.88480        3.36400
C          1.87490        1.05880        4.58790
C          2.70770        2.26360        4.91180
C          2.54660        2.60740        6.36290
C          2.99470        1.44900        7.20390
C          2.83360        1.79280        8.65510
C          3.66650        2.99750        8.97900
H         -2.45770       -0.43680        0.02660
H         -1.47590        0.95170       -3.17320
H         -2.04480        0.14720       -5.42290
H         -3.95760       -1.66800       -3.89920
H         -3.82470       -1.48010       -5.66430
H         -3.01920       -3.68040       -4.94040
H         -1.83400       -2.89430       -3.86990
H         -2.00120       -2.57560       -6.87870
H         -0.81610       -1.78950       -5.80830
H         -2.23100       -1.65770       -2.08810
H         -3.68430       -0.63000       -2.08810
H         -3.12240        1.62550       -1.64820
H         -0.08990       -0.40060       -1.69060
H         -0.40660        1.12880        0.95830
H          2.10220        0.17350       -0.69630
H          3.37020        1.22520        1.12530
H          2.20690        2.70180        2.65520
H          0.63290        2.28630        1.93550
H          0.75620        0.01710        3.13080
H          1.70670        0.33600        5.37290
H          2.38210        3.10540        4.30060
H          3.75560        2.04750        4.70370
H          1.49870        2.82350        6.57090
H          3.15180        3.48280        6.59830
H          2.38950        0.57350        6.96860
H          4.04270        1.23280        6.99590
H          1.78570        2.00890        8.86310
H          3.15930        0.95100        9.26620
H          3.34090        3.83930        8.36780
H          3.54940        3.24730       10.03350
H          4.71440        2.78140        8.77090
