54
8-HETE
C         -0.91570       -2.62430       -1.79580
C         -0.68500       -3.27680       -2.94400
C         -0.91840       -2.61640       -4.27040
C         -1.94250       -3.39410       -5.04270
C         -3.22780       -3.43290       -4.27040
C         -4.25190       -4.21060       -5.04270
O         -5.46070       -3.95270       -4.94290
O         -3.85040       -5.11970       -5.78420
C         -1.41570       -1.21000       -1.79580
C         -0.91570       -0.50290       -0.57110
O         -1.37570        0.79810       -0.57110
C          0.58430       -0.50290       -0.57110
C          1.27650        0.07110        0.42330
C          2.77650        0.07110        0.42330
C          3.46860        0.64520        1.41760
C          2.76820        1.30840        2.56630
C          3.78530        1.85970        3.52110
C          3.83270        3.16980        3.80160
C          2.87030        4.13210        3.17090
C          1.64930        4.25570        4.03340
C          2.04420        4.76020        5.38970
C          0.82320        4.88380        6.25220
C          0.16970        3.54060        6.38910
H         -1.27900       -1.01680        0.31890
H         -0.74750       -3.09980       -0.84050
H         -0.32490       -4.29530       -2.94400
H         -1.27790       -1.59970       -4.11180
H          0.01560       -2.58820       -4.83160
H         -1.58300       -4.41080       -5.20130
H         -2.11220       -2.91430       -6.00660
H         -3.05820       -3.91280       -3.30650
H         -3.58730       -2.41620       -4.11180
H         -2.50570       -1.21000       -1.79580
H         -1.05230       -0.69620       -2.68580
H         -1.08930        1.34760        0.21380
H          1.08880       -0.98060       -1.39840
H          0.77200        0.54880        1.25060
H          3.28090       -0.40650       -0.40410
H          4.54890        0.64520        1.41760
H          2.14410        2.11990        2.19180
H          2.14410        0.57840        3.08180
H          4.47840        1.16660        3.97530
H          4.56520        3.56680        4.48920
H          2.58330        3.76540        2.18530
H          3.34510        5.10810        3.07130
H          1.17440        3.27960        4.13290
H          0.95000        4.95490        3.57510
H          2.74350        4.06090        5.84800
H          2.51910        5.73630        5.29010
H          1.11020        5.25040        7.23770
H          0.12390        5.58310        5.79390
H          0.86910        2.84140        6.84750
H         -0.71750        3.63050        7.01590
H         -0.11720        3.17400        5.40360
