54
8-HETE
C         -0.90440       -2.28000       -1.97490
C         -0.67370       -2.93250       -3.12310
C         -0.90710       -2.27220       -4.44950
C         -2.34810       -1.87080       -4.56150
C         -2.58160       -1.21050       -5.88790
C         -1.71310        0.00740       -5.99990
O         -0.87050        0.11200       -6.90360
O         -1.86520        0.90630       -5.15930
C         -1.40440       -0.86580       -1.97490
C         -0.90440       -0.15870       -0.75020
O         -1.36440        1.14240       -0.75020
C          0.59560       -0.15870       -0.75020
C          1.28770        0.41540        0.24410
C          2.78770        0.41540        0.24410
C          3.47990        0.98950        1.23850
C          2.77950        1.65270        2.38720
C          3.17130        0.97820        3.66840
C          2.32820        0.92670        4.70950
C          0.96230        1.54170        4.63090
C          0.54110        2.00010        5.99570
C          0.50810        0.82640        6.92920
C         -0.46960       -0.19060        6.41950
C         -0.50260       -1.36420        7.35300
H         -1.26770       -0.67250        0.13980
H         -0.73620       -2.75560       -1.01960
H         -0.31360       -3.95100       -3.12310
H         -0.27610       -1.38720       -4.53090
H         -0.66080       -2.96900       -5.25060
H         -2.59450       -1.17400       -3.76030
H         -2.97920       -2.75580       -4.48010
H         -2.33520       -1.90730       -6.68910
H         -3.62860       -0.91880       -5.96930
H         -2.49440       -0.86580       -1.97490
H         -1.04100       -0.35200       -2.86490
H         -1.93250        1.38980       -1.53510
H          1.10010       -0.63630       -1.57750
H          0.78330        0.89300        1.07150
H          3.29220       -0.06230       -0.58320
H          4.56020        0.98950        1.23850
H          3.06420        2.70400        2.42820
H          1.70110        1.57340        2.24990
H          4.15500        0.53530        3.72500
H          2.61040        0.44090        5.63220
H          0.25180        0.80270        4.26050
H          0.98630        2.39450        3.95260
H         -0.45140        2.44700        5.93860
H          1.25160        2.73910        6.36610
H          1.50060        0.37950        6.98630
H          0.20210        1.15950        7.92090
H         -1.46210        0.25630        6.36240
H         -0.16360       -0.52360        5.42780
H         -0.80870       -1.03110        8.34470
H         -1.21310       -2.10320        6.98260
H          0.48990       -1.81110        7.41010
