54
8-HETE
C         -2.35220        0.10310       -2.06150
C         -3.04430       -0.47100       -3.05580
C         -2.34390       -1.13420       -4.20450
C         -3.36100       -1.68550       -5.15930
C         -2.66060       -2.34870       -6.30810
C         -1.80190       -1.34400       -7.01740
O         -0.57550       -1.50230       -7.11070
O         -2.35820       -0.35010       -7.50750
C         -0.85220        0.10310       -2.06150
C         -0.35220        0.81020       -0.83670
O         -0.81220        2.11120       -0.83670
C          1.14780        0.81020       -0.83670
C          1.83990        0.81020        0.31140
C          3.33990        0.81020        0.31140
C          4.03210        0.81020        1.45950
C          3.33160        0.81020        2.78600
C          3.09820       -0.60410        3.22810
C          2.48500       -0.87390        4.38940
C          2.01010        0.22860        5.28880
C          0.80620       -0.23440        6.05440
C          0.33120        0.86810        6.95390
C         -0.87270        0.40520        7.71950
C         -0.50940       -0.79280        8.54590
H         -0.71550        0.29630        0.05320
H         -2.85660        0.58070       -1.23420
H         -4.12460       -0.47100       -3.05580
H         -1.71990       -0.40420       -4.72000
H         -1.71990       -1.94570       -3.83000
H         -3.98500       -0.87410       -5.53380
H         -3.98500       -2.41550       -4.64390
H         -2.03660       -3.16010       -5.93350
H         -3.39970       -2.74930       -7.00190
H         -0.48890        0.61690       -2.95150
H         -0.48890       -0.92460       -2.06150
H         -0.52580        2.66070       -0.05190
H          1.65220        0.81020       -1.79200
H          1.33550        0.81020        1.26670
H          3.84440        0.81020       -0.64390
H          5.11230        0.81020        1.45950
H          3.94900        1.32400        3.52280
H          2.37500        1.32400        2.69170
H          3.44020       -1.39810        2.58040
H          2.31690       -1.89240        4.70780
H          1.74610        1.09910        4.68830
H          2.80380        0.49570        5.98650
H          1.07010       -1.10490        6.65500
H          0.01240       -0.50140        5.35670
H          1.12490        1.13520        7.65160
H          0.06730        1.73870        6.35340
H         -1.21780        1.20630        8.37310
H         -1.66640        0.13810        7.02180
H          0.28430       -0.52580        9.24360
H         -1.38430       -1.12920        9.10230
H         -0.16430       -1.59390        7.89230
