54
8-HETE
C         -3.40430        0.45290       -2.00620
C         -4.09640        1.44730       -2.58020
C         -3.39600        2.59600       -3.24350
C         -4.24560        3.12060       -4.36280
C         -4.47910        2.03060       -5.36650
C         -3.16260        1.56470       -5.91400
O         -2.90910        1.64320       -7.12530
O         -2.33590        1.09850       -5.11590
C         -1.90430        0.45290       -2.00620
C         -1.40430        1.16010       -0.78140
O         -1.86430        2.46110       -0.78140
C          0.09570        1.16010       -0.78140
C          0.78780        0.58600        0.21290
C          2.28780        0.58600        0.21290
C          2.97990        0.01190        1.20720
C          2.27950       -0.65130        2.35600
C          3.12910       -0.54600        3.58770
C          3.56140       -1.64260        4.22610
C          3.21140       -3.01500        3.73200
C          3.82620       -4.04330        4.63460
C          3.30020       -3.86420        6.02780
C          3.91500       -4.89260        6.93040
C          5.40590       -4.72750        6.93370
H         -1.76770        0.64620        0.10860
H         -3.90870       -0.37440       -1.52850
H         -5.17670        1.44730       -2.58020
H         -3.22640        3.38810       -2.51410
H         -2.43940        2.25740       -3.64130
H         -3.73660        3.95540       -4.84480
H         -5.20230        3.45920       -3.96500
H         -4.98800        1.19590       -4.88460
H         -5.09640        2.41180       -6.17990
H         -1.54100        0.96680       -2.89610
H         -1.54100       -0.57470       -2.00620
H         -1.57800        3.01060        0.00350
H          0.60010        1.63770       -1.60870
H          0.28340        0.10830        1.04020
H          2.79220        1.06360       -0.61440
H          4.06020        0.01190        1.20720
H          1.32290       -0.15920        2.53120
H          2.10990       -1.70190        2.12040
H          3.38120        0.44240        3.94350
H          4.17330       -1.56670        5.11320
H          3.59360       -3.14500        2.71960
H          2.12800       -3.13490        3.72960
H          4.90960       -3.92340        4.63700
H          3.57180       -5.04050        4.27550
H          3.55460       -2.86700        6.38690
H          2.21680       -3.98420        6.02540
H          3.53280       -4.76250        7.94280
H          3.66070       -5.88980        6.57130
H          5.66030       -3.73030        7.29280
H          5.85270       -5.47480        7.58960
H          5.78820       -4.85760        5.92130
