54
8-HETE
C         -3.19930       -1.05310        0.15050
C         -3.89150       -2.04740       -0.42360
C         -3.19110       -3.19610       -1.08680
C         -4.04060       -4.42780       -0.98140
C         -3.34020       -5.57660       -1.64460
C         -3.10670       -5.25240       -3.09040
O         -2.13270       -5.71660       -3.70140
O         -3.91950       -4.50500       -3.65480
C         -1.69930       -1.05310        0.15050
C         -1.19930       -0.34600        1.37530
O         -1.65930        0.95510        1.37530
C          0.30070       -0.34600        1.37530
C          0.99280        0.64840        1.94930
C          2.49280        0.64840        1.94930
C          3.18490        1.64270        2.52340
C          2.48450        2.79140        3.18660
C          1.62570        3.50080        2.18200
C          2.15910        4.05450        1.08370
C          3.63400        3.98490        0.81960
C          3.94430        4.68340       -0.47110
C          3.20370        4.01570       -1.59160
C          3.62760        2.57990       -1.68560
C          5.10250        2.51030       -1.94970
H         -1.56270       -0.85980        2.26520
H         -3.70380       -0.22580        0.62820
H         -4.97170       -2.04740       -0.42360
H         -3.02140       -2.96050       -2.13740
H         -2.23440       -3.37140       -0.59460
H         -4.99730       -4.25260       -1.47350
H         -4.21030       -4.66340        0.06920
H         -2.38360       -5.75180       -1.15250
H         -3.95760       -6.47160       -1.56810
H         -1.33600       -0.53920       -0.73950
H         -1.33600       -2.08070        0.15050
H         -1.37300        1.50460        2.16010
H          0.80510       -1.17330        0.89760
H          0.48840        1.47570        2.42700
H          2.99720       -0.17890        1.47170
H          4.26520        1.64270        2.52340
H          1.86050        2.41690        3.99810
H          3.22360        3.48520        3.58720
H          0.56350        3.55090        2.37220
H          1.54060        4.56540        0.36020
H          3.94210        2.94160        0.75130
H          4.17220        4.47020        1.63380
H          5.01610        4.63280       -0.66300
H          3.63630        5.72670       -0.40280
H          2.13190        4.06620       -1.39970
H          3.42920        4.52320       -2.52950
H          3.40210        2.07230       -0.74770
H          3.08940        2.09470       -2.49980
H          5.64080        2.99550       -1.13540
H          5.41060        1.46700       -2.01790
H          5.32800        3.01790       -2.88760
