54
8-HETE
C         -3.12300       -1.96950       -1.83930
C         -3.81510       -1.39540       -2.83360
C         -3.11470       -0.73220       -3.98240
C         -3.96420        0.38720       -4.50700
C         -4.19770        1.39090       -3.41700
C         -4.89810        0.72770       -2.26820
O         -4.38380        0.68970       -1.14060
O         -6.00820        0.21850       -2.48300
C         -1.62300       -1.96950       -1.83930
C         -1.12300       -1.26240       -0.61460
O         -1.58300        0.03870       -0.61460
C          0.37700       -1.26240       -0.61460
C          1.06920       -0.26800       -0.04050
C          2.56920       -0.26800       -0.04050
C          3.26130        0.72630        0.53360
C          2.56090        1.87500        1.19680
C          3.57800        2.82980        1.74800
C          4.04730        2.69630        2.99670
C          3.57240        1.58720        3.88800
C          4.45350        0.38710        3.70570
C          3.97860       -0.72200        4.59700
C          4.85970       -1.92210        4.41460
C          4.80340       -2.37110        2.98450
H         -1.48630       -1.77620        0.27540
H         -3.62740       -2.44710       -1.01200
H         -4.89540       -1.39540       -2.83360
H         -2.15800       -0.33430       -3.64380
H         -2.94500       -1.46150       -4.77450
H         -4.92090       -0.01070       -4.84550
H         -3.45530        0.86910       -5.34170
H         -3.24110        1.78870       -3.07840
H         -4.81510        2.20430       -3.79820
H         -1.25960       -1.45560       -2.72930
H         -1.25960       -2.99710       -1.83930
H         -1.29660        0.58820        0.17030
H          0.88150       -2.08970       -1.09220
H          0.56470        0.55930        0.43710
H          3.07360       -1.09540       -0.51820
H          4.34160        0.72630        0.53360
H          1.93680        2.39050        0.46670
H          1.93680        1.50050        2.00820
H          3.92000        3.62850        1.10610
H          4.77980        3.38390        3.39370
H          2.54600        1.32720        3.62900
H          3.61330        1.91350        4.92720
H          5.47980        0.64710        3.96470
H          4.41260        0.06080        2.66650
H          4.01950       -0.39570        5.63620
H          2.95220       -0.98200        4.33800
H          5.88610       -1.66200        4.67360
H          4.51460       -2.72800        5.06230
H          5.14850       -1.56520        2.33680
H          5.44360       -3.24320        2.85200
H          3.77700       -2.63120        2.72550
