54
12-HETE
C         -2.29080        3.20300       -2.85120
C         -1.32840        3.84500       -1.89640
C         -1.49600        5.33490       -1.94380
C         -2.89980        5.69270       -1.55490
C         -3.17370        5.20280       -0.16390
O         -3.48500        5.98980        0.74240
O         -3.07870        3.98510        0.05030
C         -2.78470        1.97870       -2.61750
C         -2.39290        1.20640       -1.39270
C         -3.09330       -0.12000       -1.39270
C         -2.40110       -1.26820       -1.39270
C         -0.90110       -1.26820       -1.39270
C         -0.20900       -2.41630       -1.39270
C          1.29100       -2.41630       -1.39270
O          1.75100       -3.54310       -2.04330
C          1.79100       -2.41630        0.02150
C          3.29100       -2.41630        0.02150
C          3.98310       -2.41630        1.16960
C          3.28270       -2.41630        2.49610
C          3.67450       -3.64100        3.26840
C          2.97410       -3.64100        4.59480
C          3.36590       -2.41630        5.36710
C          2.66550       -2.41630        6.69360
H          1.65430       -1.52630       -1.90660
H         -2.57300        3.75920       -3.73320
H         -0.30830        3.58500       -2.17890
H         -1.52740        3.48900       -0.88560
H         -0.79670        5.80140       -1.25000
H         -1.29700        5.69090       -2.95460
H         -3.02160        6.77540       -1.58940
H         -3.59920        5.22620       -2.24870
H         -3.47780        1.51640       -3.30510
H         -2.67760        1.76760       -0.50280
H         -1.31440        1.04790       -1.39270
H         -4.17350       -0.12000       -1.39270
H         -2.90560       -2.22340       -1.39270
H         -0.39670       -0.31290       -1.39270
H         -0.71340       -3.37160       -1.39270
H          1.46460       -3.62650       -2.99780
H          1.42770       -3.30630        0.53530
H          1.42770       -1.52630        0.53530
H          3.79540       -2.41630       -0.93380
H          5.06340       -2.41630        1.16960
H          3.56740       -1.52630        3.05730
H          2.20430       -2.41630        2.33750
H          3.38980       -4.53100        2.70720
H          4.75290       -3.64100        3.42690
H          3.25880       -4.53100        5.15600
H          1.89570       -3.64100        4.43630
H          4.44430       -2.41630        5.52570
H          3.08120       -1.52630        4.80590
H          2.95030       -1.52630        7.25480
H          1.58710       -2.41630        6.53500
H          2.95030       -3.30630        7.25480
