54
12-HETE
C         -1.81980        1.73460        0.78420
C         -2.00960        2.79560       -0.25900
C         -2.63630        4.00600        0.36710
C         -3.96730        3.63470        0.95060
C         -4.59400        4.84520        1.57670
O         -4.87580        4.86810        2.78400
O         -4.82110        5.82220        0.84760
C         -1.85760        0.43360        0.46310
C         -2.09110       -0.00860       -0.95110
C         -2.79150       -1.33500       -0.95110
C         -2.09940       -2.48320       -0.95110
C         -0.59940       -2.48320       -0.95110
C          0.09280       -3.63130       -0.95110
C          1.59280       -3.63130       -0.95110
O          2.05280       -4.93240       -0.95110
C          2.09280       -2.92420        0.27370
C          3.59280       -2.92420        0.27370
C          4.28490       -1.92990       -0.30040
C          3.58450       -0.78110       -0.96360
C          4.43400        0.45060       -0.85820
C          4.66750        0.77480        0.58760
C          3.35100        1.01600        1.26480
C          2.65060        2.16470        0.60160
H          1.95610       -3.11750       -1.84100
H         -1.65170        2.05300        1.80270
H         -2.65940        2.41710       -1.04810
H         -1.04240        3.06540       -0.68300
H         -1.98650        4.38450        1.15620
H         -2.77420        4.77700       -0.39100
H         -4.61710        3.25630        0.16150
H         -3.82940        2.86380        1.70870
H         -1.72090       -0.33050        1.21450
H         -1.13440       -0.10280       -1.46490
H         -2.70840        0.72830       -1.46490
H         -3.87180       -1.33500       -0.95110
H         -2.60380       -3.43840       -0.95110
H         -0.09490       -1.52790       -0.95110
H         -0.41170       -4.58660       -0.95110
H          1.76640       -5.48190       -1.73590
H          1.72940       -3.43800        1.16370
H          1.72940       -1.89650        0.27370
H          4.09720       -3.75150        0.75130
H          5.36520       -1.92990       -0.30040
H          3.41480       -1.01670       -2.01420
H          2.62780       -0.60590       -0.47150
H          5.39070        0.27530       -1.35040
H          3.92510        1.28530       -1.34020
H          5.28490        1.66980        0.66410
H          5.17650       -0.06000        1.06950
H          2.73370        0.12090        1.18820
H          3.52070        1.25160        2.31540
H          1.69400        2.34000        1.09370
H          3.26800        3.05980        0.67820
H          2.48100        1.92910       -0.44900
