54
12-HETE
C         -1.45370        4.13400        1.48380
C         -1.10370        4.90990        0.24870
C         -1.87460        6.19650        0.23120
C         -1.52450        6.97240       -1.00390
C         -2.29540        8.25910       -1.02130
O         -1.83570        9.28790       -0.50390
O         -3.40740        8.26040       -1.57000
C         -1.41760        2.79390        1.49280
C         -1.02580        2.02160        0.26800
C         -1.72620        0.69520        0.26800
C         -1.03410       -0.45300        0.26800
C          0.46590       -0.45300        0.26800
C          1.15810       -1.60110        0.26800
C          2.65810       -1.60110        0.26800
O          3.11810       -0.95060       -0.85870
C          3.15810       -3.01530        0.26800
C          2.65810       -3.72240        1.49280
C          1.88610       -4.81410        1.39500
C          1.49430       -5.36830        0.05730
C          0.63550       -6.58270        0.25120
C          0.24370       -7.13680       -1.08650
C         -0.61500       -8.35130       -0.89250
C         -1.84850       -7.97440       -0.12670
H          3.02140       -1.08730        1.15800
H         -1.73590        4.69020        2.36590
H         -1.35740        4.32230       -0.63360
H         -0.03540        5.12640        0.24620
H         -2.94290        5.98010        0.23370
H         -1.62080        6.78410        1.11350
H         -0.45620        7.18890       -1.00640
H         -1.77830        6.38480       -1.88620
H         -1.66970        2.23510        2.38230
H          0.05260        1.86300        0.26800
H         -1.31050        2.58280       -0.62200
H         -2.80650        0.69520        0.26800
H         -1.53850       -1.40830        0.26800
H          0.97040        0.50230        0.26800
H          0.65360       -2.55640        0.26800
H          3.68620       -1.50660       -1.46540
H          4.24810       -3.01530        0.26800
H          2.79470       -3.52920       -0.62200
H          2.94030       -3.32340        2.45620
H          1.52600       -5.32340        2.27700
H          0.93730       -4.61450       -0.49920
H          2.39060       -5.64220       -0.49920
H          1.19260       -7.33650        0.80770
H         -0.26080       -6.30880        0.80770
H          1.14000       -7.41080       -1.64290
H         -0.31330       -6.38310       -1.64290
H         -0.89980       -8.75400       -1.86460
H         -0.05800       -9.10510       -0.33600
H         -2.47250       -8.85690        0.01420
H         -1.56380       -7.57170        0.84540
H         -2.40550       -7.22060       -0.68320
