54
12-HETE
C         -3.66440        2.87890        0.34060
C         -2.68120        2.09580       -0.47800
C         -2.22230        2.92760       -1.63880
C         -1.23910        2.14440       -2.45730
C         -0.05900        1.77890       -1.60650
O         -0.03870        0.72060       -0.96060
O          0.89550        2.56960       -1.57010
C         -3.78010        2.67910        1.66120
C         -2.93050        1.66510        2.36830
C         -3.63090        0.33870        2.36830
C         -2.93880       -0.80950        2.36830
C         -1.43880       -0.80950        2.36830
C         -0.74670       -1.95760        2.36830
C          0.75330       -1.95760        2.36830
O          1.21330       -1.30710        3.49510
C          1.25330       -1.25050        1.14360
C          2.75330       -1.25050        1.14360
C          3.44550       -1.25050       -0.00460
C          2.74510       -1.25050       -1.33100
C          3.76220       -1.25050       -2.43350
C          3.06180       -1.25050       -3.76000
C          2.20300       -2.47530       -3.87190
C          1.50260       -2.47530       -5.19840
H          1.11670       -2.98530        2.36830
H         -4.27630        3.60920       -0.16860
H         -3.15780        1.18780       -0.84750
H         -1.82370        1.83020        0.14030
H         -3.07980        3.19310       -2.25700
H         -1.74570        3.83550       -1.26920
H         -1.71570        1.23640       -2.82690
H         -0.90560        2.74880       -3.30080
H         -4.48810        3.24310        2.25070
H         -2.76080        1.98640        3.39600
H         -1.97380        1.57080        1.85450
H         -4.71120        0.33870        2.36830
H         -3.44320       -1.76480        2.36830
H         -0.93440        0.14580        2.36830
H         -1.25110       -2.91290        2.36830
H          1.78150       -0.50370        3.31690
H          0.89000       -0.22290        1.14360
H          0.89000       -1.76440        0.25360
H          3.25780       -1.25050        2.09880
H          4.52580       -1.25050       -0.00460
H          2.12100       -2.14050       -1.41240
H          2.12100       -0.36050       -1.41240
H          4.38620       -0.36050       -2.35210
H          4.38620       -2.14050       -2.35220
H          3.80090       -1.25050       -4.56110
H          2.43770       -0.36050       -3.84130
H          2.82700       -3.36520       -3.79060
H          1.46390       -2.47530       -3.07080
H          0.87860       -3.36520       -5.27970
H          0.87860       -1.58530       -5.27970
H          2.24170       -2.47530       -5.99950
