54
12-HETE
C         -2.58500        3.75470        1.93400
C         -1.62260        4.39670        0.97920
C         -2.38480        5.18260       -0.04610
C         -3.19400        6.24440        0.63780
C         -2.27850        7.16240        1.39230
O         -2.38140        7.30190        2.62010
O         -1.41560        7.77730        0.74820
C         -3.07880        2.53050        1.70040
C         -2.68700        1.75810        0.47560
C         -3.38740        0.43170        0.47560
C         -2.69530       -0.71640        0.47560
C         -1.19530       -0.71640        0.47560
C         -0.50320       -1.86460        0.47560
C          0.99680       -1.86460        0.47560
O          1.45680       -0.73780       -0.17490
C          1.49680       -3.08930       -0.23150
C          2.99680       -3.08930       -0.23150
C          3.68890       -4.23750       -0.23150
C          2.98850       -5.56390       -0.23150
C          3.38040       -6.33620       -1.45620
C          2.98850       -5.56390       -2.68100
C          3.38040       -6.33620       -3.90570
C          4.86440       -6.55440       -3.90570
H          1.36020       -1.86460        1.50330
H         -2.86720        4.31090        2.81610
H         -1.03460        3.62510        0.48230
H         -0.95740        5.06380        1.52750
H         -1.68550        5.64910       -0.73990
H         -3.05000        4.51550       -0.59440
H         -3.74790        6.81550       -0.10730
H         -3.89330        5.77790        1.33160
H         -3.77190        2.06810        2.38800
H         -1.60860        1.59960        0.47560
H         -2.97170        2.31940       -0.41440
H         -4.46770        0.43170        0.47560
H         -3.19970       -1.67170        0.47560
H         -0.69090        0.23880        0.47560
H         -1.00760       -2.81990        0.47560
H          1.17050        0.13050        0.23010
H          1.13350       -3.08930       -1.25920
H          1.13350       -3.97930        0.28230
H          3.50120       -2.13400       -0.23150
H          4.76920       -4.23750       -0.23150
H          3.27330       -6.12510        0.65850
H          1.91010       -5.40540       -0.23150
H          4.45880       -6.49480       -1.45620
H          2.87140       -7.30010       -1.45620
H          3.49750       -4.60000       -2.68100
H          1.91010       -5.40540       -2.68100
H          2.87140       -7.30010       -3.90570
H          3.09560       -5.77500       -4.79570
H          5.14910       -7.11570       -4.79570
H          5.37340       -5.59060       -3.90570
H          5.14910       -7.11570       -3.01580
