54
12-HETE
C         -3.50900        4.29810       -1.61860
C         -3.81600        4.90330       -0.28090
C         -3.78190        6.39900       -0.38910
C         -2.41840        6.83710       -0.83500
C         -1.39600        6.38470        0.16500
O         -0.84130        5.28080        0.05880
O         -1.12350        7.15060        1.10140
C         -2.90400        3.10570       -1.71640
C         -2.51220        2.33340       -0.49160
C         -3.21260        1.00690       -0.49160
C         -2.52050       -0.14120       -0.49160
C         -1.02050       -0.14120       -0.49160
C         -0.32840       -1.28940       -0.49160
C          1.17160       -1.28940       -0.49160
O          1.63160       -1.28940       -1.79270
C          1.67160       -2.51410        0.21550
C          3.17160       -2.51410        0.21550
C          3.86370       -3.66220        0.21550
C          3.16330       -4.98870        0.21550
C          3.55520       -5.76100        1.44020
C          2.85480       -7.08740        1.44020
C          3.24660       -7.85980        2.66500
C          2.85470       -7.08740        3.88970
H          1.53490       -0.39940        0.02220
H         -3.79120        4.85430       -2.50060
H         -3.07310        4.57460        0.44580
H         -4.80690        4.58490        0.04310
H         -4.52490        6.72770       -1.11580
H         -4.00510        6.83880        0.58290
H         -2.19530        6.39730       -1.80710
H         -2.39360        7.92400       -0.91370
H         -2.68290        2.66980       -2.67970
H         -2.79690        2.89460        0.39840
H         -1.43380        2.17480       -0.49160
H         -4.29290        1.00690       -0.49160
H         -3.02490       -1.09650       -0.49160
H         -0.51610        0.81410       -0.49160
H         -0.83280       -2.24460       -0.49160
H          2.19970       -2.07420       -2.04010
H          1.30830       -3.40410       -0.29830
H          1.30830       -2.51410        1.24320
H          3.67600       -1.55880        0.21550
H          4.94400       -3.66220        0.21550
H          2.08490       -4.83010        0.21550
H          3.44810       -5.54990       -0.67450
H          4.63360       -5.91960        1.44020
H          3.27040       -5.19980        2.33020
H          3.13950       -7.64870        0.55030
H          1.77630       -6.92890        1.44020
H          2.73760       -8.82360        2.66500
H          4.32500       -8.01830        2.66500
H          3.13950       -7.64870        4.77970
H          3.36370       -6.12360        3.88970
H          1.77630       -6.92890        3.88970
