54
12-HETE
C         -1.85820        3.52860       -2.45980
C         -0.65940        2.63160       -2.55110
C          0.54940        3.44680       -2.90370
C          1.74820        2.54980       -2.99500
C          1.51760        1.51350       -4.05460
O          1.84760        1.71760       -5.23240
O          0.98620        0.44600       -3.71460
C         -2.55660        3.63660       -1.32060
C         -2.16480        2.86420       -0.09590
C         -2.86520        1.53780       -0.09590
C         -2.17310        0.38970       -0.09590
C         -0.67310        0.38970       -0.09590
C          0.01900       -0.75850       -0.09590
C          1.51900       -0.75850       -0.09590
O          1.97900       -1.40900       -1.22260
C          2.01900       -1.46560        1.12890
C          1.51900       -0.75850        2.35360
C          1.28830       -1.42650        3.49280
C          1.52180       -2.90540        3.58420
C          0.57190       -3.50100        4.58070
C         -0.83920       -3.24370        4.14200
C         -1.78910       -3.83920        5.13860
C         -3.20020       -3.58200        4.69990
H          1.88240        0.26920       -0.09590
H         -2.14030        4.08480       -3.34180
H         -0.82690        1.87850       -3.32110
H         -0.49910        2.14050       -1.59130
H          0.38910        3.93800       -3.86350
H          0.71690        4.19990       -2.13370
H          2.62650        3.14220       -3.25120
H          1.90840        2.05870       -2.03520
H         -3.42000        4.28260       -1.25480
H         -2.44950        3.42550        0.79410
H         -1.08640        2.70570       -0.09590
H         -3.94550        1.53780       -0.09590
H         -2.67750       -0.56560       -0.09590
H         -0.16870        1.34490       -0.09590
H         -0.48540       -1.71380       -0.09590
H          1.69270       -1.00400       -2.09100
H          3.10900       -1.46560        1.12890
H          1.65570       -2.49330        1.12890
H          1.35090        0.30660        2.28780
H          0.92820       -0.91730        4.37490
H          1.35620       -3.36040        2.60760
H          2.54720       -3.09240        3.90290
H          0.74160       -4.57560        4.64710
H          0.73750       -3.04600        5.55730
H         -1.00480       -3.69870        3.16540
H         -1.00890       -2.16900        4.07560
H         -1.61940       -4.91390        5.20490
H         -1.62350       -3.38430        6.11510
H         -3.89050       -4.01470        5.42400
H         -3.36990       -2.50730        4.63350
H         -3.36580       -4.03690        3.72330
