54
12-HETE
C         -2.59240        3.50850       -0.90180
C         -1.22660        3.74800       -0.33000
C         -0.50910        4.77050       -1.16040
C         -1.28570        6.05380       -1.15450
C         -0.56820        7.07630       -1.98500
O         -0.65420        8.28590       -1.72630
O          0.11390        6.67250       -2.93860
C         -3.43560        2.63270       -0.33670
C         -3.04370        1.86040        0.88800
C         -3.74410        0.53390        0.88800
C         -3.05200       -0.61420        0.88800
C         -1.55200       -0.61420        0.88800
C         -0.85990       -1.76240        0.88800
C          0.64010       -1.76240        0.88800
O          1.10010       -0.63560        1.53860
C          1.14010       -1.76240       -0.52620
C          0.64010       -2.98710       -1.23330
C          0.95060       -4.21510       -0.79410
C          1.80940       -4.40900        0.42030
C          2.58160       -5.68820        0.28760
C          3.44030       -5.88210        1.50210
C          4.21250       -7.16120        1.36930
C          5.08100       -7.09660        0.14800
H          1.00340       -2.65230        1.40180
H         -2.87460        4.06470       -1.78390
H         -0.66220        2.81550       -0.33430
H         -1.31980        4.11160        0.69340
H          0.48350        4.94450       -0.74490
H         -0.41590        4.40690       -2.18380
H         -2.27820        5.87980       -1.57010
H         -1.37890        6.41730       -0.13120
H         -4.41920        2.46020       -0.74860
H         -3.32850        2.42160        1.77800
H         -1.96530        1.70180        0.88800
H         -4.82440        0.53390        0.88800
H         -3.55640       -1.56950        0.88800
H         -1.04760        0.34110        0.88800
H         -1.36430       -2.71760        0.88800
H          0.81370       -0.55220        2.49300
H          2.23010       -1.76240       -0.52620
H          0.77680       -0.87240       -1.04000
H          0.02160       -2.84740       -2.10800
H          0.59050       -5.09710       -1.30340
H          2.50340       -3.57350        0.51180
H          1.17830       -4.45600        1.30780
H          1.88760       -6.52370        0.19610
H          3.21260       -5.64120       -0.59990
H          2.80930       -5.92910        2.38960
H          4.13430       -5.04660        1.59350
H          4.83650       -7.30210        2.25190
H          3.51850       -7.99670        1.27790
H          5.64210       -8.02600        0.05160
H          4.45690       -6.95560       -0.73450
H          5.77490       -6.26100        0.23950
