52
5_OxoETE
C         -0.09460        3.94590        3.85820
O         -0.30680        4.01180        2.63830
O          0.10730        4.96910        4.52900
C         -0.09000        2.58830        4.49600
C         -0.35990        1.54480        3.45280
C         -0.35530        0.18720        4.09070
C         -0.62520       -0.85630        3.04750
O         -0.17260       -1.99600        3.12860
C         -1.48400       -0.41700        1.89880
C         -1.79450       -1.26090        0.90450
C         -2.65320       -0.82160       -0.24430
C         -2.96380       -1.66550       -1.23860
C         -2.46380       -3.07970       -1.23860
C         -0.96380       -3.07970       -1.23860
C         -0.27170       -2.50570       -2.23290
C         -0.97210       -1.84240       -3.38160
C         -0.12250       -1.94780       -4.61340
C          1.10840       -1.41810       -4.65250
C          1.68090       -0.70070       -3.46610
C          2.00020        0.71530       -3.84410
C          2.57270        1.43260       -2.65770
C          3.82580        0.73960       -2.21120
C          4.39830        1.45690       -1.02480
H          0.88320        2.40400        4.95110
H         -0.86370        2.54440        5.26260
H         -1.33300        1.72920        2.99780
H          0.41380        1.58870        2.68630
H          0.61790        0.00290        4.54580
H         -1.12900        0.14330        4.85720
H         -1.84410        0.60150        1.89880
H         -1.43440       -2.27940        0.90450
H         -3.01330        0.19690       -0.24430
H         -3.58230       -1.34920       -2.06590
H         -2.82710       -3.59360       -2.12860
H         -2.82710       -3.59360       -0.34860
H         -0.45940       -3.55740       -0.41130
H          0.80860       -2.50570       -2.23290
H         -1.14170       -0.79180       -3.14610
H         -1.92870       -2.33460       -3.55690
H         -0.53480       -2.46440       -5.46780
H          1.72030       -1.49400       -5.53960
H          2.59150       -1.20430       -3.14170
H          0.95430       -0.70490       -2.65360
H          1.08950        1.21890       -4.16860
H          2.72680        0.71940       -4.65660
H          1.84600        1.42850       -1.84520
H          2.80470        2.46160       -2.93240
H          3.59380       -0.28940       -1.93650
H          4.55250        0.74370       -3.02370
H          5.30890        0.95340       -0.70030
H          4.63030        2.48590       -1.29950
H          3.67170        1.45280       -0.21230
