52
5_OxoETE
C          1.39360        3.90260        3.99000
O          0.16020        3.88240        3.86350
O          2.03900        4.94540        3.80660
C          2.07950        2.62450        4.37210
C          1.55730        2.15360        5.69710
C          0.07950        1.91740        5.59680
C         -0.19040        0.87390        4.55360
O          0.26220       -0.26590        4.63470
C         -1.04920        1.31310        3.40490
C         -1.35970        0.46930        2.41060
C         -2.21850        0.90850        1.26190
C         -2.52900        0.06460        0.26750
C         -2.02900       -1.34960        0.26750
C         -0.52900       -1.34960        0.26750
C          0.16310       -1.92370       -0.72680
C         -0.53730       -2.58690       -1.87550
C         -0.77080       -1.58320       -2.96550
C         -0.25190       -1.75730       -4.18940
C          0.58090       -2.96200       -4.51330
C          0.41980       -3.30580       -5.96440
C          0.86790       -2.14740       -6.80540
C          0.70680       -2.49120       -8.25660
C          1.15490       -1.33280       -9.09760
H          1.88330        1.86620        3.61400
H          3.15340        2.79610        4.44500
H          2.05570        1.22480        5.97480
H          1.75350        2.91190        6.45520
H         -0.29990        1.57520        6.55970
H         -0.41890        2.84610        5.31920
H         -1.40930        2.33160        3.40490
H         -0.99960       -0.54930        2.41060
H         -2.57860        1.92700        1.26190
H         -3.14750        0.38100       -0.55980
H         -2.39230       -1.86340       -0.62240
H         -2.39230       -1.86340        1.15750
H         -0.02460       -0.87190        1.09480
H          1.24340       -1.92370       -0.72680
H         -1.49390       -2.98470       -1.53700
H          0.08010       -3.40030       -2.25670
H         -1.37060       -0.71550       -2.73230
H         -0.42010       -1.03440       -4.97440
H          0.25530       -3.80380       -3.90210
H          1.62880       -2.74590       -4.30520
H         -0.62810       -3.52190       -6.17240
H          1.02500       -4.18130       -6.19980
H          1.91580       -1.93130       -6.59740
H          0.26270       -1.27200       -6.57010
H          1.31200       -3.36670       -8.49190
H         -0.34110       -2.70730       -8.46460
H          1.03790       -1.58260      -10.15210
H          0.54970       -0.45730       -8.86220
H          2.20290       -1.11670       -8.88960
