52
5_OxoETE
C         -4.14840        1.25340       -5.98010
O         -3.79210        0.06580       -5.99680
O         -4.27520        1.89850       -7.03140
C         -4.42090        1.88420       -4.64680
C         -3.55510        1.24220       -3.60360
C         -3.82770        1.87300       -2.27020
C         -2.96190        1.23110       -1.22700
O         -2.59760        0.06010       -1.30810
C         -2.57010        2.11250       -0.07830
C         -1.79810        1.65130        0.91600
C         -1.40630        2.53270        2.06480
C         -0.63440        2.07160        3.05910
C         -0.13440        0.65730        3.05910
C          1.36560        0.65730        3.05910
C          2.05780       -0.49080        3.05910
C          1.35740       -1.81720        3.05910
C          2.20690       -2.83130        3.76620
C          3.10660       -3.56720        3.09810
C          3.29630       -3.40340        1.61920
C          4.71160       -2.99260        1.33920
C          5.00000       -1.69140        2.02750
C          6.41520       -1.28060        1.74750
C          6.60500       -1.11680        0.26860
H         -4.19930        2.95020       -4.69710
H         -5.46970        1.74300       -4.38560
H         -3.77670        0.17620       -3.55320
H         -2.50630        1.38340       -3.86470
H         -3.60610        2.93910       -2.32050
H         -4.87650        1.73190       -2.00910
H         -2.93020        3.13100       -0.07830
H         -1.43800        0.63280        0.91600
H         -1.76640        3.55120        2.06480
H         -0.35220        2.70630        3.88640
H         -0.49770        0.14350        2.16910
H         -0.49770        0.14350        3.94910
H          1.87010        1.61260        3.05910
H          3.13800       -0.49080        3.05910
H          1.18770       -2.13850        2.03140
H          0.40070       -1.72300        3.57290
H          2.07020       -2.94920        4.83130
H          3.71840       -4.29750        3.60740
H          2.61550       -2.63740        1.24820
H          3.08680       -4.34890        1.11910
H          4.84950       -2.87350        0.26450
H          5.39240       -3.75860        1.71030
H          4.86210       -1.81040        3.10210
H          4.31910       -0.92530        1.65640
H          6.62480       -0.33500        2.24760
H          7.09610       -2.04660        2.11850
H          7.63340       -0.81820        0.06510
H          6.39540       -2.06230       -0.23160
H          5.92410       -0.35070       -0.10250
