52
5_OxoETE
C         -1.01660        3.97070        6.31320
O         -2.14200        3.53160        6.03390
O         -0.85470        5.15610        6.63930
C          0.14270        3.02140        6.24400
C         -0.12720        1.97790        5.20080
C         -0.31170        2.63980        3.86750
C         -0.58160        1.59630        2.82430
O         -0.12900        0.45660        2.90540
C         -1.44040        2.03560        1.67550
C         -1.75090        1.19170        0.68120
C         -2.60960        1.63100       -0.46750
C         -2.92020        0.78710       -1.46180
C         -2.42020       -0.62710       -1.46180
C         -0.92020       -0.62710       -1.46180
C         -0.22810       -1.62150       -2.03590
C         -0.92850       -2.77020       -2.69910
C         -0.07890       -4.00190       -2.59380
C          1.15200       -4.04110       -3.12350
C          1.72450       -2.85460       -3.84080
C          2.67700       -3.32290       -4.90080
C          3.24950       -2.13650       -5.61810
C          4.20200       -2.60480       -6.67800
C          5.31200       -3.38800       -6.04210
H          1.04720        3.57080        5.98290
H          0.27680        2.54030        7.21290
H          0.71520        1.28800        5.15050
H         -1.03160        1.42840        5.46190
H         -1.15410        3.32970        3.91780
H          0.59280        3.18920        3.60630
H         -1.80050        3.05410        1.67550
H         -1.39080        0.17320        0.68120
H         -2.96970        2.64950       -0.46750
H         -3.53860        1.10340       -2.28910
H         -2.78350       -1.14100       -2.35180
H         -2.78350       -1.14100       -0.57190
H         -0.41580        0.20020       -0.98420
H          0.85220       -1.62150       -2.03590
H         -1.09810       -2.53460       -3.74980
H         -1.88510       -2.94550       -2.20700
H         -0.49120       -4.85640       -2.07710
H          1.76390       -4.92820       -3.04760
H          2.25500       -2.22130       -3.12980
H          0.91790       -2.28550       -4.30290
H          2.14650       -3.95620       -5.61180
H          3.48360       -3.89210       -4.43860
H          3.77990       -1.50320       -4.90700
H          2.44290       -1.56730       -6.08020
H          3.67150       -3.23810       -7.38910
H          4.61800       -1.74260       -7.19930
H          6.00410       -3.72830       -6.81230
H          5.84240       -2.75470       -5.33100
H          4.89600       -4.25020       -5.52080
