52
5_OxoETE
C         -3.30800       -0.42530        2.46010
O         -2.17370       -0.74390        2.07340
O         -4.27900       -0.45520        1.68940
C         -3.46730       -0.00270        3.89050
C         -2.13680       -0.06220        4.58060
C         -1.17440        0.85890        3.89130
C         -1.70170        2.26230        3.94220
O         -2.40820        2.66340        4.86440
C         -1.30990        3.14370        2.79350
C         -0.53790        2.68250        1.79920
C         -0.14610        3.56390        0.65050
C          0.62580        3.10270       -0.34390
C          1.12580        1.68850       -0.34390
C          2.62580        1.68850       -0.34390
C          3.31790        0.69420       -0.91790
C          2.61750       -0.45450       -1.58110
C          1.75880        0.06090       -2.69780
C          1.02630       -0.77340       -3.44930
C          1.03880       -2.25260       -3.20080
C          1.52630       -2.96190       -4.42940
C          1.53880       -4.44110       -4.18090
C          2.02630       -5.15030       -5.40950
C          3.41470       -4.68650       -5.73680
H         -3.85050        1.01710        3.92750
H         -4.16670       -0.67210        4.39140
H         -2.25260        0.24490        5.62000
H         -1.75360       -1.08200        4.54360
H         -0.20750        0.81570        4.39280
H         -1.05860        0.55180        2.85190
H         -1.67000        4.16220        2.79350
H         -0.17780        1.66400        1.79920
H         -0.50620        4.58240        0.65050
H          0.90800        3.73750       -1.17120
H          0.76250        1.17470       -1.23380
H          0.76250        1.17470        0.54610
H          3.13020        2.51580        0.13380
H          4.39820        0.69420       -0.91790
H          1.99350       -0.97000       -0.85110
H          3.35660       -1.14830       -1.98170
H          1.74980        1.12620       -2.87670
H          0.40780       -0.40220       -4.25350
H          0.02990       -2.58960       -2.96290
H          1.70270       -2.47510       -2.36540
H          2.53520       -2.62480       -4.66730
H          0.86250       -2.73940       -5.26480
H          0.52990       -4.77810       -3.94300
H          2.20270       -4.66360       -3.34550
H          2.03540       -6.22520       -5.22890
H          1.36240       -4.92790       -6.24490
H          3.76890       -5.20190       -6.62960
H          3.40560       -3.61160       -5.91740
H          4.07850       -4.90900       -4.90140
