52
5_OxoETE
C         -0.97430        3.75600        3.46410
O         -1.50170        4.87340        3.35960
O          0.11350        3.61310        4.04190
C         -1.69510        2.58290        2.86890
C         -2.97430        3.04890        2.23940
C         -3.69510        1.87580        1.64420
C         -2.82930        1.23380        0.60100
O         -2.46490        0.06280        0.68210
C         -2.43740        2.11520       -0.54770
C         -1.66550        1.65400       -1.54200
C         -1.27370        2.53540       -2.69080
C         -0.50170        2.07430       -3.68510
C         -0.00170        0.66010       -3.68510
C          1.49830        0.66010       -3.68510
C          2.19040        0.08600       -2.69080
C          1.49000       -0.57720       -1.54200
C          2.50710       -1.12850       -0.58730
C          2.55450       -2.43860       -0.30680
C          1.59210       -3.40090       -0.93750
C          1.34540       -4.54690       -0.00170
C          2.64050       -5.24860        0.28180
C          2.39380       -6.39460        1.21760
C          3.68890       -7.09630        1.50110
H         -1.06590        2.11640        2.11090
H         -1.91840        1.85820        3.65200
H         -3.60340        3.51540        2.99750
H         -2.75100        3.77350        1.45640
H         -3.91840        1.15110        2.42720
H         -4.62460        2.21440        1.18670
H         -2.79750        3.13370       -0.54770
H         -1.30540        0.63550       -1.54200
H         -1.63380        3.55390       -2.69080
H         -0.21950        2.70910       -4.51240
H         -0.36510        0.14620       -4.57510
H         -0.36510        0.14620       -2.79510
H          2.00270        1.13770       -4.51240
H          3.27070        0.08600       -2.69080
H          0.86600       -1.38870       -1.91660
H          0.86600        0.15280       -1.02660
H          3.20020       -0.43550       -0.13300
H          3.28700       -2.83560        0.38090
H          2.01310       -3.77720       -1.86980
H          0.65100       -2.89100       -1.14350
H          0.64610       -5.24620       -0.46000
H          0.92440       -4.17060        0.93060
H          3.33980       -4.54930        0.74020
H          3.06150       -5.62490       -0.65050
H          1.97280       -6.01830        2.14990
H          1.69450       -7.09390        0.75930
H          3.50970       -7.92910        2.18110
H          4.11000       -7.47260        0.56880
H          4.38830       -6.39700        1.95950
