52
5_OxoETE
C         -5.04980       -1.88070       -1.70040
O         -4.14050       -2.69760       -1.90850
O         -5.77660       -1.48280       -2.62290
C         -5.24210       -1.38930       -0.29620
C         -3.92420       -1.39440        0.42020
C         -2.96180       -0.49480       -0.29700
C         -3.50940        0.90130       -0.32650
O         -4.58340        1.17260       -0.85890
C         -2.65980        1.94460        0.33680
C         -1.49170        1.62350        0.91080
C         -0.64210        2.66670        1.57410
C          0.52600        2.34570        2.14810
C          1.02600        0.93140        2.14810
C          2.52600        0.93140        2.14810
C          3.21820        1.50550        1.15380
C          2.51780        2.16870        0.00510
C          3.36730        2.06340       -1.22660
C          3.71900        0.86950       -1.72490
C          3.27560       -0.40450       -1.06870
C          4.47880       -1.19540       -0.64830
C          4.03550       -2.46930        0.00780
C          5.23870       -3.26020        0.42820
C          6.05240       -2.45530        1.39780
H         -5.64000       -0.37470       -0.31760
H         -5.94150       -2.04300        0.22490
H         -4.06390       -1.03740        1.44050
H         -3.52630       -2.40900        0.44150
H         -2.00410       -0.49850        0.22350
H         -2.82210       -0.85190       -1.31740
H         -3.01990        2.96310        0.33680
H         -1.13160        0.60500        0.91080
H         -1.00220        3.68530        1.57410
H          1.13790        3.09700        2.62580
H          0.66270        0.41760        1.25810
H          0.66270        0.41760        3.03810
H          3.03050        0.45380        2.97540
H          4.29840        1.50550        1.15380
H          2.34810        3.21940        0.24070
H          1.56110        1.67660       -0.17020
H          3.68660        2.98090       -1.69920
H          4.33080        0.79360       -2.61190
H          2.68440       -0.98940       -1.77320
H          2.67040       -0.17060       -0.19290
H          5.07010       -0.61050        0.05620
H          5.08410       -1.42930       -1.52420
H          3.44420       -3.05420       -0.69670
H          3.43030       -2.23540        0.88370
H          4.91660       -4.18600        0.90500
H          5.84390       -3.49420       -0.44760
H          6.92680       -3.03000        1.70330
H          6.37460       -1.52960        0.92100
H          5.44720       -2.22140        2.27360
