54
8-HETE
C         -3.17460        3.07240       -0.63050
C         -3.86680        2.49840        0.36380
C         -3.16640        1.83520        1.51250
C         -4.18350        1.28390        2.46730
C         -3.48310        0.62070        3.61600
C         -2.62430        1.62540        4.32540
O         -2.07190        2.60700        3.84170
O         -2.53270        1.29120        5.63770
C         -1.67460        3.07240       -0.63050
C         -1.17460        3.07240       -2.04470
O         -1.63460        1.94570       -2.69530
C          0.32540        3.07240       -2.04470
C          1.01750        1.92430       -2.04470
C          2.51750        1.92430       -2.04470
C          3.20960        0.77620       -2.04470
C          2.50920       -0.55030       -2.04470
C          2.90100       -1.32260       -3.26950
C          2.93720       -2.66270       -3.26050
C          2.58710       -3.43860       -2.02540
C          3.35800       -4.72520       -2.00800
C          3.00790       -5.50110       -0.77290
C          3.77880       -6.78770       -0.75540
C          3.42880       -7.56360        0.47970
H         -1.53800        3.96240       -2.55860
H         -3.67910        3.55010       -1.45780
H         -4.94700        2.49840        0.36380
H         -2.54230        1.02370        1.13800
H         -2.54230        2.56520        2.02800
H         -4.80750        0.55380        1.95190
H         -4.80750        2.09530        2.84180
H         -4.22220        0.22010        4.30990
H         -2.85900       -0.19070        3.24150
H         -1.99080        1.92990        6.07210
H         -1.31130        2.18250       -0.11670
H         -1.31130        3.96240       -0.11670
H          0.82980        4.02770       -2.04470
H          0.51310        0.96900       -2.04470
H          3.02190        2.87960       -2.04470
H          4.28990        0.77620       -2.04470
H          2.79390       -1.11150       -1.15480
H          1.43080       -0.39170       -2.04470
H          3.15310       -0.76380       -4.15900
H          3.21940       -3.21890       -4.14260
H          1.51880       -3.65500       -2.02290
H          2.84080       -2.85100       -1.14310
H          4.42630       -4.50880       -2.01050
H          3.10430       -5.31280       -2.89030
H          3.26170       -4.91350        0.10940
H          1.93970       -5.71760       -0.77040
H          3.52510       -7.37530       -1.63770
H          4.84710       -6.57130       -0.75790
H          2.36050       -7.78010        0.48220
H          3.98900       -8.49860        0.49240
H          3.68250       -6.97600        1.36200
