54
8-HETE
C         -0.29090        1.33970       -2.93340
C         -0.60140        0.11170       -2.49420
C         -1.46020       -0.08230       -1.27970
C         -2.23230       -1.36140       -1.41250
C         -3.09110       -1.55530       -0.19800
C         -4.04610       -0.40550       -0.07210
O         -5.17250       -0.31710       -0.54770
O         -3.47430        0.57390        0.67360
C         -0.79090        2.56440       -2.22630
C         -0.29090        2.56440       -0.81200
O         -0.75090        3.69120       -0.16150
C          1.20910        2.56440       -0.81200
C          1.90130        1.41630       -0.81200
C          3.40130        1.41630       -0.81200
C          4.09340        0.26810       -0.81200
C          3.39300       -1.05830       -0.81200
C          4.24250       -2.07230       -0.10490
C          4.12690       -2.27210        1.21570
C          3.14370       -1.48900        2.03420
C          1.83240       -2.21640        2.07140
C          0.84920       -1.43320        2.88990
C         -0.46210       -2.16060        2.92710
C         -1.44530       -1.37740        3.74560
H         -0.65420        1.67440       -0.29820
H          0.32760        1.47940       -3.80800
H         -0.24130       -0.77040       -3.00350
H         -0.82910       -0.12920       -0.39220
H         -2.15410        0.75330       -1.18830
H         -1.53830       -2.19690       -1.50390
H         -2.86340       -1.31440       -2.29990
H         -3.65220       -2.48480       -0.29440
H         -2.46000       -1.60230        0.68950
H         -4.08410        1.29030        0.74520
H         -1.88090        2.56440       -2.22630
H         -0.42750        3.45440       -2.74010
H          1.71360        3.51970       -0.81200
H          1.39680        0.46100       -0.81200
H          3.90570        2.37160       -0.81200
H          5.17370        0.26810       -0.81200
H          2.43630       -0.96400       -0.29820
H          3.22330       -1.37960       -1.83970
H          4.95060       -2.63630       -0.69450
H          4.73870       -3.00240        1.72490
H          3.00090       -0.50510        1.58720
H          3.52490       -1.37520        3.04900
H          1.97520       -3.20020        2.51830
H          1.45120       -2.33020        1.05660
H          1.23050       -1.31940        3.90470
H          0.70650       -0.44940        2.44290
H         -0.84330       -2.27440        1.91230
H         -0.31930       -3.14440        3.37400
H         -1.58800       -0.39360        3.29860
H         -2.39810       -1.90600        3.77260
H         -1.06400       -1.26360        4.76040
