54
8-HETE
C         -1.46600        1.85190       -0.79790
C         -1.77660        2.84620       -1.64180
C         -2.63530        3.99500       -1.20250
C         -1.76690        5.08500       -0.64780
C         -2.62560        6.23370       -0.20850
C         -3.39780        6.75830       -1.38260
O         -4.50600        6.40050       -1.76550
O         -2.67560        7.72900       -1.99780
C         -1.96600        1.85190        0.61630
C         -1.46600        0.62720        1.32350
O         -1.92600        0.62720        2.62450
C          0.03400        0.62720        1.32350
C          0.72610       -0.52100        1.32350
C          2.22610       -0.52100        1.32350
C          2.91820       -1.66910        1.32350
C          2.21780       -2.99560        1.32350
C          1.98430       -3.43770       -0.09080
C          2.50320       -4.58460       -0.55190
C          3.33600       -5.46750        0.32950
C          3.17490       -6.89610       -0.09840
C          4.00780       -7.77900        0.78300
C          3.84670       -9.20760        0.35520
C          2.40460       -9.60420        0.46960
H         -1.82940       -0.26280        0.80960
H         -0.84760        1.02460       -1.11420
H         -1.41650        2.84620       -2.66030
H         -3.19640        4.37620       -2.05570
H         -3.32930        3.65640       -0.43320
H         -1.07290        5.42350       -1.41710
H         -1.20580        4.70380        0.20540
H         -3.31960        5.89520        0.56080
H         -1.99460        7.02580        0.19450
H         -3.17150        8.05020       -2.73350
H         -3.05600        1.85190        0.61630
H         -1.60270        2.74190        1.13020
H          0.53840        1.58250        1.32350
H          0.22170       -1.47630        1.32350
H          2.73050        0.43430        1.32350
H          3.99850       -1.66910        1.32350
H          2.83510       -3.73240        1.83730
H          1.26110       -2.90130        1.83730
H          1.38450       -2.80190       -0.72560
H          2.33500       -4.90300       -1.57040
H          3.01040       -5.35910        1.36400
H          4.38390       -5.17930        0.24630
H          3.50050       -7.00450       -1.13290
H          2.12700       -7.18430       -0.01520
H          5.05570       -7.49080        0.69990
H          3.68210       -7.67060        1.81760
H          4.17230       -9.31600       -0.67940
H          4.45190       -9.84920        0.99570
H          1.79940       -8.96270       -0.17090
H          2.28750      -10.64240        0.15870
H          2.07890       -9.49590        1.50420
