54
8-HETE
C         -0.48360        2.13390        0.38790
C         -1.33540        1.61630        1.28440
C         -2.81940        1.72540        1.09550
C         -3.31410        0.53700        0.32540
C         -2.99760       -0.71760        1.08420
C         -3.49230       -1.90600        0.31410
O         -2.82990       -2.84400       -0.11500
O         -4.83510       -1.80430        0.14480
C         -0.98360        2.84100       -0.83690
C         -0.48360        2.13390       -2.06160
O         -0.94360        0.83280       -2.06160
C          1.01640        2.13390       -2.06160
C          1.70850        0.98570       -2.06160
C          3.20850        0.98570       -2.06160
C          3.90060       -0.16240       -2.06160
C          3.20020       -1.48880       -2.06160
C          3.59200       -2.26120       -0.83690
C          2.89350       -2.15320        0.30230
C          1.69480       -1.25620        0.39370
C          1.55560       -0.74910        1.79850
C          2.78620        0.02090        2.17630
C          2.64710        0.52800        3.58110
C          1.44830        1.42500        3.67240
H         -0.84700        2.64770       -2.95160
H          0.58520        2.05530        0.52400
H         -0.97530        1.10700        2.16650
H         -3.30840        1.75650        2.06920
H         -3.04950        2.63700        0.54410
H         -2.82520        0.50580       -0.64830
H         -4.39250        0.61630        0.18800
H         -1.91920       -0.79690        1.22150
H         -3.48650       -0.68650        2.05790
H         -5.13350       -2.55670       -0.34020
H         -0.62030        3.86870       -0.83690
H         -2.07360        2.84100       -0.83690
H          1.52080        3.08920       -2.06160
H          1.20410        0.03050       -2.06160
H          3.71290        1.94100       -2.06160
H          4.98090       -0.16240       -2.06160
H          2.12180       -1.33030       -2.06160
H          3.48490       -2.05010       -2.95160
H          4.45540       -2.90720       -0.90270
H          3.17570       -2.70940        1.18440
H          0.80050       -1.81580        0.11910
H          1.81900       -0.41340       -0.28630
H          1.43140       -1.59190        2.47840
H          0.68450       -0.09730        1.86480
H          3.65730       -0.63090        2.10990
H          2.91050        0.86370        1.49630
H          2.52290       -0.31480        4.26100
H          3.54130        1.08760        3.85560
H          0.55410        0.86550        3.39790
H          1.34720        1.79350        4.69320
H          1.57260        2.26790        2.99250
