54
8-HETE
C         -2.78330        3.14930        0.40030
C         -2.55260        3.14040       -0.92030
C         -2.78610        1.90530       -1.73890
C         -1.50070        1.48550       -2.38830
C         -0.47670        1.19820       -1.33060
C          0.80870        0.77840       -1.98010
O          1.03700        0.67130       -3.17970
O          1.73300        0.51920       -1.02060
C         -3.28330        1.92460        1.10740
C         -2.78330        1.92460        2.52160
O         -3.24330        3.05140        3.17210
C         -1.28330        1.92460        2.52160
C         -0.59120        0.77640        2.52160
C          0.90880        0.77640        2.52160
C          1.60100       -0.37170        2.52160
C          0.90060       -1.69810        2.52160
C          1.91770       -2.80060        2.52160
C          2.38700       -3.30930        1.37350
C          1.91200       -2.79450        0.04700
C          1.27750       -3.91300       -0.72530
C          0.80260       -3.39820       -2.05170
C          1.96850       -2.85570       -2.82410
C          1.49360       -2.34090       -4.15050
H         -3.14660        1.03460        3.03540
H         -2.61510        4.03880        0.98980
H         -2.19250        4.02240       -1.42960
H         -3.14550        1.10400       -1.09320
H         -3.53020        2.11410       -2.50740
H         -1.14130        2.28670       -3.03400
H         -1.67040        0.58800       -2.98310
H         -0.30700        2.09570       -0.73580
H         -0.83610        0.39690       -0.68490
H          2.53570        0.25660       -1.44140
H         -2.92000        1.03460        0.59360
H         -4.37330        1.92460        1.10740
H         -0.77890        2.87990        2.52160
H         -1.09560       -0.17880        2.52160
H          1.41330        1.73170        2.52160
H          2.68120       -0.37170        2.52160
H          0.27650       -1.77950        3.41160
H          0.27650       -1.77950        1.63160
H          2.25970       -3.17140        3.47690
H          3.11950       -4.10330        1.37350
H          2.75920       -2.40030       -0.51420
H          1.18080       -2.00190        0.20560
H          0.43040       -4.30720       -0.16410
H          2.00880       -4.70560       -0.88390
H          0.34160       -4.21090       -2.61300
H          0.07140       -2.60560       -1.89320
H          2.42960       -2.04300       -2.26280
H          2.69970       -3.64830       -2.98260
H          0.76230       -1.54830       -3.99190
H          2.34080       -1.94670       -4.71170
H          1.03250       -3.15370       -4.71170
