54
8-HETE
C         -1.32920        0.94250        1.97470
C         -1.63970       -0.34060        2.20840
C         -2.49850       -1.11570        1.25360
C         -3.27070       -2.15710        2.00810
C         -4.12940       -2.93230        1.05330
C         -5.08440       -1.99950        0.36940
O         -6.21080       -1.68510        0.73710
O         -4.51260       -1.52420       -0.76610
C         -1.82920        1.64960        0.75000
C         -1.32920        3.06380        0.75000
O         -1.78920        3.71440       -0.37680
C          0.17080        3.06380        0.75000
C          0.86290        1.91570        0.75000
C          2.36290        1.91570        0.75000
C          3.05500        0.76750        0.75000
C          2.35460       -0.55890        0.75000
C          1.49590       -0.67090       -0.47480
C          1.97890       -1.18680       -1.61400
C          3.39570       -1.67090       -1.70530
C          4.28210       -0.54320       -2.14400
C          5.69890       -1.02730       -2.23540
C          6.58530        0.10050       -2.67400
C          6.50220        1.21850       -1.67750
H         -1.69250        3.57770        1.63990
H         -0.71070        1.50080        2.66230
H         -1.27960       -0.84980        3.09040
H         -3.19250       -0.43790        0.75660
H         -1.86740       -1.60020        0.50850
H         -3.90170       -1.67270        2.75320
H         -2.57670       -2.83500        2.50510
H         -3.49830       -3.41670        0.30820
H         -4.69050       -3.68910        1.60160
H         -5.12250       -0.93950       -1.18630
H         -2.91920        1.64960        0.75000
H         -1.46590        1.13580       -0.14000
H          0.67520        4.01910        0.75000
H          0.35850        0.96040        0.75000
H          2.86730        2.87100        0.75000
H          4.13530        0.76750        0.75000
H          3.09370       -1.36000        0.75000
H          1.73060       -0.64030        1.63990
H          0.47550       -0.32220       -0.40900
H          1.36040       -1.26750       -2.49600
H          3.45610       -2.48330       -2.42950
H          3.72070       -2.02980       -0.72870
H          4.22170        0.26930       -1.41990
H          3.95710       -0.18430       -3.12060
H          6.02390       -1.38610       -1.25880
H          5.75930       -1.83970       -2.95950
H          7.61490       -0.25130       -2.74040
H          6.26030        0.45930       -3.65060
H          6.82720        0.85970       -0.70090
H          7.14640        2.03800       -1.99630
H          5.47270        1.57030       -1.61110
