54
8-HETE
C         -2.13600        3.17470        0.28000
C         -1.90530        3.82720       -0.86820
C         -2.13880        3.16690       -2.19460
C         -1.18890        3.73220       -3.20860
C          0.22220        3.48090       -2.76650
C          1.17210        4.04610       -3.78050
O          0.99030        4.16430       -4.98700
O          2.31650        4.42930       -3.15940
C         -2.63600        1.76050        0.28000
C         -2.13600        1.05340        1.50470
O         -2.59600        1.70390        2.63150
C         -0.63600        1.05340        1.50470
C          0.05610       -0.09480        1.50470
C          1.55610       -0.09480        1.50470
C          2.24820       -1.24290        1.50470
C          1.54780       -2.56940        1.50470
C          0.68910       -2.68130        2.72950
C         -0.43800       -3.40720        2.72050
C         -0.88130       -4.13390        1.48540
C          0.17200       -5.12260        1.08180
C          0.38460       -6.10810        2.19250
C          1.43790       -7.09680        1.78890
C          0.99460       -7.82350        0.55380
H         -2.49930        0.02570        1.50470
H         -1.96790        3.65030        1.23530
H         -1.54520        4.84570       -0.86820
H         -1.97320        2.09370       -2.10030
H         -3.16420        3.34950       -2.51590
H         -1.35450        4.80540       -3.30290
H         -1.35860        3.25230       -4.17250
H          0.39190        3.96070       -1.80260
H          0.38780        2.40760       -2.67220
H          2.90470        4.78260       -3.80710
H         -2.27270        1.24660       -0.61000
H         -3.72600        1.76050        0.28000
H         -0.13160        2.00870        1.50470
H         -0.44830       -1.05010        1.50470
H          2.06050        0.86050        1.50470
H          3.32850       -1.24290        1.50470
H          0.92380       -2.65070        0.61470
H          2.28690       -3.37050        1.50470
H          1.00840       -2.15800        3.61900
H         -1.05640       -3.48790        3.60250
H         -1.03580       -3.41780        0.67830
H         -1.81440       -4.65950        1.68830
H          1.10510       -4.59700        0.87890
H         -0.15010       -5.65060        0.18430
H          0.70670       -5.58010        3.09000
H         -0.54850       -6.63370        2.39540
H          2.37100       -6.57120        1.58600
H          1.59240       -7.81290        2.59600
H          0.84010       -7.10740       -0.25330
H          1.76000       -8.54200        0.26050
H          0.06150       -8.34910        0.75670
