54
8-HETE
C         -1.39100        1.17650       -1.68780
C         -2.09770        2.16560       -2.25290
C         -3.41420        2.60130       -1.68100
C         -4.29230        3.11580       -2.78290
C         -3.62610        4.28270       -3.44960
C         -3.39820        5.37080       -2.44250
O         -4.15730        6.28880       -2.15290
O         -2.18250        5.19980       -1.86370
C         -1.89100        0.46940       -0.46310
C         -1.39100        1.17650        0.76170
O         -1.85100        2.47760        0.76170
C          0.10900        1.17650        0.76170
C          0.80110        0.02840        0.76170
C          2.30110        0.02840        0.76170
C          2.99330       -1.11980        0.76170
C          2.29290       -2.44620        0.76170
C          2.05940       -2.88840        2.17590
C          2.96700       -3.62850        2.82840
C          4.24890       -4.04140        2.16810
C          4.33170       -5.53860        2.12930
C          3.17060       -6.08360        1.35160
C          3.25340       -7.58080        1.31280
C          3.21540       -8.12010        2.71190
H         -1.75430        0.66270        1.65170
H         -0.44290        0.86280       -2.09970
H         -1.73760        2.67490       -3.13500
H         -3.89840        1.75330       -1.19660
H         -3.24870        3.39190       -0.94920
H         -5.24900        3.43240       -2.36740
H         -4.45790        2.32520       -3.51480
H         -2.66940        3.96620       -3.86520
H         -4.26420        4.65660       -4.25030
H         -2.05150        5.88940       -1.23330
H         -1.52760       -0.55830       -0.46310
H         -2.98100        0.46940       -0.46310
H          0.61340        2.13180        0.76170
H          0.29670       -0.92690        0.76170
H          2.80560        0.98360        0.76170
H          4.07350       -1.11980        0.76170
H          1.33620       -2.35200        0.24790
H          2.91020       -3.18310        0.24790
H          1.13610       -2.59100        2.65150
H          2.79880       -3.94690        3.84690
H          5.09270       -3.64540        2.73320
H          4.27660       -3.64950        1.15140
H          4.30410       -5.93050        3.14600
H          5.26330       -5.83870        1.64940
H          2.23900       -5.78350        1.83140
H          3.19820       -5.69170        0.33490
H          2.40960       -7.97680        0.74770
H          4.18500       -7.88080        0.83290
H          2.28380       -7.82010        3.19180
H          3.27550       -9.20810        2.68370
H          4.05910       -7.72410        3.27700
