54
8-HETE
C         -2.66440        3.32530       -0.87360
C         -1.89250        3.22750       -1.96530
C         -1.50070        1.88980       -2.51940
C         -0.16210        1.99800       -3.18770
C          0.86200        2.44390       -2.18650
C          2.20050        2.55220       -2.85480
O          2.82790        1.66030       -3.41480
O          2.65060        3.82870       -2.75480
C         -3.16440        2.10050       -0.16650
C         -2.66440        2.10050        1.24770
O         -3.12440        3.22730        1.89820
C         -1.16440        2.10050        1.24770
C         -0.47230        0.95240        1.24770
C          1.02770        0.95240        1.24770
C          1.71980       -0.19570        1.24770
C          1.01940       -1.52220        1.24770
C          1.86900       -2.53620        1.95480
C          1.82320       -3.83310        1.61820
C          0.92080       -4.31730        0.52220
C         -0.41330       -4.68700        1.09970
C         -0.23380       -5.77480        2.11680
C         -1.56790       -6.14450        2.69430
C         -1.38830       -7.23220        3.71140
H         -3.02780        1.21060        1.76150
H         -2.94660        4.28870       -0.47460
H         -1.53240        4.10960       -2.47460
H         -1.44450        1.16310       -1.70900
H         -2.24480        1.56580       -3.24700
H         -0.21830        2.72470       -3.99820
H          0.12260        1.02600       -3.59040
H          0.57730        3.41600       -1.78380
H          0.91820        1.71730       -1.37600
H          3.49200        3.88350       -3.17830
H         -2.80110        1.21060       -0.68030
H         -4.25440        2.10050       -0.16650
H         -0.66000        3.05580        1.24770
H         -0.97670       -0.00290        1.24770
H          1.53210        1.90770        1.24770
H          2.80010       -0.19570        1.24770
H          0.06270       -1.42790        1.76150
H          0.84980       -1.84350        0.22000
H          2.51890       -2.18750        2.74410
H          2.43510       -4.56340        2.12740
H          1.36500       -5.19100        0.04520
H          0.79040       -3.52690       -0.21690
H         -1.06900       -5.03890        0.30330
H         -0.85740       -3.81330        1.57660
H          0.21040       -6.64850        1.63980
H          0.42200       -5.42290        2.91320
H         -2.01200       -5.27080        3.17120
H         -2.22360       -6.49630        1.89780
H         -0.73260       -6.88040        4.50780
H         -2.35780       -7.50090        4.13100
H         -0.94420       -8.10590        3.23440
