54
8-HETE
C         -1.26910        1.09020        0.03800
C         -1.03840        1.09920        1.35850
C         -1.27180        2.33430        2.17710
C         -1.65530        1.94350        3.57360
C         -1.88880        3.17860        4.39220
C         -2.99430        3.98450        3.77710
O         -3.94950        3.56810        3.13150
O         -2.79100        5.30040        4.04030
C         -1.76910        2.31500       -0.66910
C         -1.26910        2.31500       -2.08340
O         -1.72910        1.18820       -2.73390
C          0.23090        2.31500       -2.08340
C          0.92300        1.16680       -2.08340
C          2.42300        1.16680       -2.08340
C          3.11520        0.01870       -2.08340
C          2.41480       -1.30780       -2.08340
C          3.26430       -2.32180       -1.37630
C          2.85780       -3.59210       -1.24130
C          1.53850       -4.04570       -1.79260
C          1.34780       -5.50390       -1.49690
C          2.45360       -6.29210       -2.13400
C          2.26290       -7.75020       -1.83830
C          2.28560       -7.96650       -0.35420
H         -1.63240        3.20500       -2.59720
H         -1.10090        0.20070       -0.55160
H         -0.67830        0.21710        1.86780
H         -0.35950        2.93010        2.20410
H         -2.07520        2.91990        1.73010
H         -0.85200        1.35790        4.02060
H         -2.56770        1.34770        3.54660
H         -2.16750        2.89460        5.40700
H         -0.97650        3.77440        4.41920
H         -3.49200        5.79580        3.64860
H         -1.40580        3.20500       -0.15530
H         -2.85910        2.31500       -0.66910
H          0.73530        3.27030       -2.08340
H          0.41860        0.21150       -2.08340
H          2.92750        2.12210       -2.08340
H          4.19540        0.01870       -2.08340
H          1.45810       -1.21350       -1.56950
H          2.24510       -1.62900       -3.11100
H          4.21440       -1.99510       -0.97930
H          3.46960       -4.32240       -0.73210
H          1.52200       -3.88850       -2.87110
H          0.73500       -3.47300       -1.32960
H          0.38920       -5.83350       -1.89740
H          1.36440       -5.66110       -0.41840
H          2.43710       -6.13490       -3.21250
H          3.41220       -5.96250       -1.73350
H          1.30420       -8.07980       -2.23890
H          3.06640       -8.32300       -2.30130
H          1.48210       -7.39380        0.10880
H          2.14700       -9.02610       -0.13930
H          3.24430       -7.63690        0.04640
