53
Vaccenic_acid
C         -0.92300        2.77020        1.70310
C         -1.42300        4.18440        1.70310
C         -1.58960        4.65580        0.28880
C         -2.57770        3.77610       -0.41830
C         -3.89900        3.83930        0.28880
C         -4.88710        2.95960       -0.41830
C         -4.38710        1.54540       -0.41830
C         -4.15640        0.89290        0.72990
C         -3.65640       -0.52130        0.72990
C         -2.15640       -0.52130        0.72990
C         -1.65640       -1.93560        0.72990
C         -0.15640       -1.93560        0.72990
C          0.34360       -3.34980        0.72990
C          1.84360       -3.34980        0.72990
C          2.34360       -2.64270       -0.49490
C          3.84360       -2.64270       -0.49490
C          4.34360       -1.93560       -1.71960
C          5.84360       -1.93560       -1.71960
O          6.48380       -2.46650       -2.63930
O          6.42260       -1.38730       -0.77000
H         -0.80190        2.42760        2.73070
H          0.03720        2.72430        1.18920
H         -1.64090        2.13090        1.18920
H         -0.70500        4.82360        2.21690
H         -2.38320        4.23030        2.21690
H         -0.62940        4.60990       -0.22500
H         -1.95300        5.68340        0.28880
H         -2.69880        4.11870       -1.44590
H         -2.21430        2.74850       -0.41830
H         -3.77790        3.49670        1.31650
H         -4.26240        4.86690        0.28880
H         -5.84730        3.00550        0.09560
H         -5.00820        3.30220       -1.44590
H         -4.21890        1.06980       -1.37350
H         -4.32450        1.36840        1.68520
H         -4.01970       -1.03520       -0.16010
H         -4.01970       -1.03520        1.61990
H         -1.79300       -0.00750        1.61990
H         -1.79300       -0.00750       -0.16010
H         -2.01970       -2.44940       -0.16010
H         -2.01970       -2.44940        1.61990
H          0.20700       -1.42170       -0.16010
H          0.20700       -1.42170        1.61990
H         -0.01970       -3.86360        1.61990
H         -0.01970       -3.86360       -0.16010
H          2.20700       -4.37740        0.72990
H          2.20700       -2.83590        1.61990
H          1.98030       -3.15650       -1.38480
H          1.98030       -1.61500       -0.49490
H          4.20700       -2.12880        0.39510
H          4.20700       -3.67030       -0.49490
H          3.98030       -0.90790       -1.71960
H          3.98030       -2.44940       -2.60960
