53
Vaccenic_acid
C         -8.75400        1.06450       -2.50910
C         -7.43260        1.00130       -1.80200
C         -6.44460        1.88100       -2.50910
C         -5.12320        1.81780       -1.80200
C         -4.62320        0.40360       -1.80200
C         -3.30180        0.34050       -1.09490
C         -2.80180       -1.07370       -1.09490
C         -1.63370       -1.39480       -1.66890
C         -1.13370       -2.80910       -1.66890
C          0.36630       -2.80910       -1.66890
C          0.86630       -2.10200       -0.44420
C          2.36630       -2.10200       -0.44420
C          2.86630       -1.39480        0.78050
C          2.36630        0.01940        0.78050
C          2.86630        0.72650        2.00530
C          4.36630        0.72650        2.00530
C          4.86630        1.43360        3.23000
C          6.36630        1.43360        3.23000
O          7.00650        2.35330        2.69910
O          6.94530        0.48400        3.77830
H         -9.47200        0.42530       -1.99530
H         -8.63290        0.72190       -3.53670
H         -9.11730        2.09220       -2.50910
H         -7.06930       -0.02630       -1.80200
H         -7.55370        1.34390       -0.77430
H         -6.80790        2.90870       -2.50910
H         -6.32350        1.53840       -3.53680
H         -4.40520        2.45700       -2.31580
H         -5.24430        2.16040       -0.77430
H         -5.34120       -0.23560       -1.28810
H         -4.50210        0.06110       -2.82960
H         -2.58390        0.97970       -1.60870
H         -3.42300        0.68300       -0.06720
H         -3.41370       -1.82510       -0.61720
H         -1.02180       -0.64350       -2.14660
H         -1.49700       -3.32290       -2.55890
H         -1.49700       -3.32290       -0.77900
H          0.72970       -2.29520       -2.55890
H          0.72970       -3.83670       -1.66890
H          0.50300       -2.61580        0.44580
H          0.50300       -1.07430       -0.44420
H          2.72960       -3.12960       -0.44420
H          2.72960       -1.58810       -1.33420
H          2.50300       -1.90870        1.67050
H          3.95630       -1.39480        0.78050
H          1.27630        0.01940        0.78050
H          2.72960        0.53320       -0.10940
H          2.50300        1.75410        2.00530
H          2.50300        0.21260        2.89530
H          4.72970       -0.30120        2.00530
H          4.72970        1.24030        1.11530
H          4.50300        0.91980        4.12000
H          4.50300        2.46120        3.23000
