53
Vaccenic_acid
C         -8.03210        2.71690       -1.59960
C         -6.71070        2.65380       -0.89250
C         -6.87740        3.12520        0.52170
C         -5.55600        3.06200        1.22880
C         -5.05600        1.64780        1.22880
C         -3.73460        1.58470        1.93590
C         -3.23460        0.17050        1.93590
C         -2.06650       -0.15060        1.36180
C         -1.56650       -1.56490        1.36180
C         -0.06650       -1.56490        1.36180
C          0.43350       -2.97910        1.36180
C          1.93350       -2.97910        1.36180
C          2.43350       -2.27200        0.13710
C          3.93350       -2.27200        0.13710
C          4.43350       -1.56490       -1.08770
C          5.93350       -1.56490       -1.08770
C          6.43350       -0.85770       -2.31240
C          5.93350        0.55650       -2.31240
O          6.58720        1.46660       -1.78140
O          4.84520        0.78580       -2.86070
H         -7.91090        2.37440       -2.62730
H         -8.39540        3.74460       -1.59960
H         -8.75000        2.07770       -1.08580
H         -5.99270        3.29300       -1.40640
H         -6.34740        1.62610       -0.89250
H         -7.59530        2.48600        1.03550
H         -7.24070        4.15290        0.52170
H         -4.83800        3.70130        0.71500
H         -5.67710        3.40460        2.25650
H         -5.77400        1.00860        1.74260
H         -4.93490        1.30530        0.20110
H         -3.01670        2.22390        1.42210
H         -3.85570        1.92720        2.96360
H         -3.84650       -0.58090        2.41350
H         -1.45460        0.60070        0.88420
H         -1.92980       -2.07870        0.47180
H         -1.92980       -2.07870        2.25180
H          0.29690       -1.05100        2.25180
H          0.29690       -1.05100        0.47180
H          0.07020       -3.49290        0.47180
H          0.07020       -3.49290        2.25180
H          2.29690       -2.46520        2.25180
H          2.29690       -4.00670        1.36180
H          2.07020       -2.78580       -0.75290
H          2.07020       -1.24430        0.13710
H          4.29690       -3.29960        0.13710
H          4.29690       -1.75810        1.02710
H          4.07020       -2.07870       -1.97760
H          4.07020       -0.53720       -1.08770
H          6.29690       -1.05100       -0.19770
H          6.29690       -2.59250       -1.08770
H          6.07020       -1.37160       -3.20240
H          7.52350       -0.85770       -2.31240
