53
Vaccenic_acid
C         -3.26090        3.21640        6.19790
C         -3.76090        2.50930        4.97320
C         -3.26090        3.21640        3.74840
C         -3.76090        2.50930        2.52370
C         -3.26090        1.09500        2.52370
C         -3.76090        0.38790        1.29890
C         -3.26090       -1.02630        1.29890
C         -3.03020       -1.67880        0.15080
C         -2.53020       -3.09300        0.15080
C         -1.03020       -3.09300        0.15080
C         -0.53020       -2.38590       -1.07400
C          0.96980       -2.38590       -1.07400
C          1.46980       -1.67880       -2.29870
C          2.96980       -1.67880       -2.29870
C          3.46980       -0.97170       -3.52350
C          2.96980        0.44250       -3.52350
C          3.46980        1.14960       -2.29870
C          4.96980        1.14960       -2.29870
O          5.61000        0.61860       -1.37900
O          5.54880        1.69790       -3.24830
H         -3.62430        2.70250        7.08790
H         -3.62430        4.24400        6.19790
H         -2.17090        3.21640        6.19790
H         -4.85090        2.50930        4.97320
H         -3.39760        1.48160        4.97320
H         -2.17090        3.21640        3.74840
H         -3.62430        4.24400        3.74840
H         -4.85090        2.50920        2.52370
H         -3.39760        3.02310        1.63370
H         -2.17090        1.09500        2.52370
H         -3.62430        0.58120        3.41370
H         -4.85090        0.38790        1.29890
H         -3.39760        0.90180        0.40890
H         -3.09280       -1.50190        2.25420
H         -3.19840       -1.20320       -0.80450
H         -2.89350       -3.60690       -0.73920
H         -2.89350       -3.60690        1.04080
H         -0.66690       -4.12070        0.15080
H         -0.66690       -2.57920        1.04080
H         -0.89350       -1.35830       -1.07400
H         -0.89350       -2.89980       -1.96390
H          1.33310       -1.87210       -0.18400
H          1.33310       -3.41360       -1.07400
H          1.10650       -2.19270       -3.18870
H          1.10650       -0.65120       -2.29870
H          3.33310       -2.70650       -2.29870
H          3.33310       -1.16500       -1.40870
H          4.55980       -0.97170       -3.52350
H          3.10650       -1.48550       -4.41340
H          3.33310        0.95630       -4.41340
H          1.87980        0.44250       -3.52350
H          3.10650        0.63580       -1.40870
H          3.10650        2.17730       -2.29870
