53
Vaccenic_acid
C         -8.41470        4.25800       -3.81500
C         -7.09340        4.19480       -3.10790
C         -7.26000        4.66620       -1.69370
C         -5.93870        4.60310       -0.98660
C         -5.43870        3.18890       -0.98660
C         -4.11730        3.12570       -0.27950
C         -3.61730        1.71150       -0.27950
C         -2.44920        1.39040        0.29460
C         -1.94920       -0.02380        0.29460
C         -0.44920       -0.02380        0.29460
C          0.05080       -1.43800        0.29460
C          1.55080       -1.43800        0.29460
C          2.05080       -2.85220        0.29460
C          3.55080       -2.85220        0.29460
C          4.05080       -2.14510        1.51940
C          5.55080       -2.14510        1.51940
C          6.05080       -3.55940        1.51940
C          7.55080       -3.55940        1.51940
O          8.19100       -4.09030        2.43910
O          8.12980       -3.01110        0.56970
H         -8.29360        3.91540       -4.84260
H         -8.77810        5.28560       -3.81500
H         -9.13270        3.61880       -3.30120
H         -6.37540        4.83400       -3.62170
H         -6.73000        3.16720       -3.10790
H         -7.97800        4.02700       -1.17980
H         -7.62340        5.69390       -1.69370
H         -5.22070        5.24230       -1.50040
H         -6.05980        4.94560        0.04110
H         -6.15670        2.54970       -0.47270
H         -5.31760        2.84630       -2.01420
H         -3.39930        3.76490       -0.79330
H         -4.23840        3.46830        0.74820
H         -4.22920        0.96010       -0.75710
H         -1.83730        2.14170        0.77230
H         -2.31250       -0.53760       -0.59540
H         -2.31250       -0.53760        1.18460
H         -0.08580        0.49000        1.18460
H         -0.08580        0.49000       -0.59540
H         -0.31250       -1.95190       -0.59540
H         -0.31250       -1.95190        1.18460
H          1.91420       -0.92420       -0.59540
H          1.91420       -0.92420        1.18460
H          1.68750       -3.36610        1.18460
H          1.68750       -3.36610       -0.59540
H          3.91420       -2.33840       -0.59540
H          3.91420       -3.87990        0.29460
H          3.68750       -1.11750        1.51940
H          3.68750       -2.65900        2.40930
H          5.91420       -1.63130        0.62940
H          5.91420       -1.63130        2.40930
H          5.68750       -4.07320        0.62940
H          5.68750       -4.07320        2.40930
