53
Vaccenic_acid
C         -1.96450        5.47780       -3.67270
C         -2.46450        4.77070       -2.44800
C         -3.96450        4.77070       -2.44800
C         -4.46450        4.06360       -1.22320
C         -3.96450        4.77070        0.00150
C         -4.46450        4.06360        1.22620
C         -3.96450        2.64940        1.22620
C         -2.65130        2.37960        1.22620
C         -2.15130        0.96540        1.22620
C         -0.65130        0.96540        1.22620
C         -0.15130       -0.44890        1.22620
C          1.34870       -0.44890        1.22620
C          1.84870       -1.86310        1.22620
C          1.34870       -2.57020        0.00150
C          1.84870       -3.98440        0.00150
C          3.34870       -3.98440        0.00150
C          3.84870       -5.39860        0.00150
C          5.34870       -5.39860        0.00150
O          5.98880       -5.92960        0.92120
O          5.92770       -4.85030       -0.94810
H         -0.87450        5.47780       -3.67270
H         -2.32790        6.50550       -3.67270
H         -2.32790        4.96400       -4.56270
H         -2.10120        5.28450       -1.55800
H         -2.10120        3.74300       -2.44800
H         -4.32790        4.25690       -3.33800
H         -4.32790        5.79840       -2.44800
H         -5.55450        4.06360       -1.22320
H         -4.10120        3.03590       -1.22320
H         -2.87450        4.77070        0.00150
H         -4.32790        5.79840        0.00150
H         -4.10120        4.57740        2.11620
H         -5.55450        4.06360        1.22620
H         -4.69700        1.85540        1.22620
H         -1.91880        3.17360        1.22620
H         -2.51470        0.45150        0.33630
H         -2.51470        0.45150        2.11620
H         -0.28800        1.47920        2.11620
H         -0.28800        1.47920        0.33630
H         -0.51470       -0.96270        0.33630
H         -0.51470       -0.96270        2.11620
H          1.71200        0.06500        0.33630
H          1.71200        0.06500        2.11620
H          2.93870       -1.86310        1.22620
H          1.48530       -2.37690        2.11620
H          1.71200       -2.05630       -0.88850
H          0.25870       -2.57020        0.00150
H          1.48530       -4.49820        0.89150
H          1.48530       -4.49820       -0.88850
H          3.71200       -3.47060       -0.88850
H          3.71200       -3.47060        0.89150
H          3.48530       -5.91240       -0.88850
H          3.48530       -5.91240        0.89150
