53
Vaccenic_acid
C         -5.90620        5.99280        2.79570
C         -6.89420        5.11310        2.08860
C         -6.39420        3.69890        2.08860
C         -5.07290        3.63580        1.38150
C         -5.23950        4.10720       -0.03270
C         -3.91820        4.04400       -0.73980
C         -3.41820        2.62980       -0.73980
C         -2.25000        2.30870       -0.16580
C         -1.75000        0.89450       -0.16580
C         -0.25000        0.89450       -0.16580
C          0.25000       -0.51970       -0.16580
C          1.75000       -0.51970       -0.16580
C          2.25000       -1.93390       -0.16580
C          3.75000       -1.93390       -0.16580
C          4.25000       -3.34820       -0.16580
C          5.75000       -3.34820       -0.16580
C          6.25000       -4.76240       -0.16580
C          5.75000       -5.46950       -1.39050
O          5.53660       -6.69090       -1.38220
O          5.55700       -4.79280       -2.41150
H         -6.26950        7.02040        2.79570
H         -4.94600        5.94690        2.28190
H         -5.78510        5.65020        3.82340
H         -7.01530        5.45570        1.06090
H         -7.85440        5.15900        2.60240
H         -7.11220        3.05970        1.57480
H         -6.27310        3.35640        3.11620
H         -4.35490        4.27500        1.89530
H         -4.70950        2.60810        1.38150
H         -5.95750        3.46800       -0.54660
H         -5.60290        5.13480       -0.03270
H         -4.03930        4.38660       -1.76750
H         -3.20020        4.68320       -0.22600
H         -4.03000        1.87850       -1.21750
H         -1.63820        3.06000        0.31190
H         -2.11330        0.38070       -1.05570
H         -2.11330        0.38070        0.72420
H          0.11330        1.40830        0.72420
H          0.11330        1.40830       -1.05570
H         -0.11330       -1.03360       -1.05570
H         -0.11330       -1.03360        0.72420
H          2.11330       -0.00590       -1.05570
H          2.11330       -0.00590        0.72420
H          1.88670       -2.44780        0.72420
H          1.88670       -2.44780       -1.05570
H          4.11330       -1.42010        0.72420
H          4.11330       -1.42010       -1.05570
H          3.88670       -3.86200        0.72420
H          3.88670       -3.86200       -1.05570
H          6.11330       -2.83430       -1.05570
H          6.11330       -2.83430        0.72420
H          5.88670       -5.27620        0.72420
H          7.34000       -4.76240       -0.16580
