53
Vaccenic_acid
C         -8.68330        2.04110        2.01020
C         -7.18330        2.04110        2.01020
C         -6.68330        2.74820        0.78550
C         -5.18330        2.74820        0.78550
C         -4.68330        3.45530       -0.43930
C         -3.18330        3.45530       -0.43930
C         -2.68330        2.04110       -0.43930
C         -1.37010        1.77130       -0.43930
C         -0.87010        0.35710       -0.43930
C          0.62990        0.35710       -0.43930
C          1.12990        1.06420        0.78550
C          2.62990        1.06420        0.78550
C          3.12990       -0.35000        0.78550
C          4.62990       -0.35000        0.78550
C          5.12990       -1.76430        0.78550
C          4.62990       -2.47140       -0.43930
C          5.12990       -3.88560       -0.43930
C          4.62990       -4.59270       -1.66400
O          4.41650       -5.81420       -1.65570
O          4.43690       -3.91600       -2.68500
H         -9.04660        1.52730        2.90020
H         -9.04660        1.52730        1.12020
H         -9.04660        3.06880        2.01020
H         -6.81990        1.01340        2.01020
H         -6.81990        2.55490        2.90020
H         -7.04660        3.77590        0.78550
H         -7.04660        2.23440       -0.10450
H         -4.81990        3.26200        1.67550
H         -4.81990        1.72050        0.78550
H         -5.04660        2.94150       -1.32920
H         -5.04660        4.48300       -0.43930
H         -2.81990        3.96910       -1.32920
H         -2.81990        3.96910        0.45070
H         -3.41580        1.24710       -0.43930
H         -0.63760        2.56530       -0.43930
H         -1.23340       -0.15680       -1.32920
H         -1.23340       -0.15680        0.45070
H          0.99330        0.87090       -1.32920
H          0.99330       -0.67060       -0.43930
H          0.76660        0.55030        1.67550
H          0.76660        2.09180        0.78550
H          2.99330        1.57800       -0.10450
H          2.99330        1.57800        1.67550
H          2.76660       -0.86390        1.67550
H          2.76660       -0.86390       -0.10450
H          4.99330        0.16380        1.67550
H          4.99330        0.16380       -0.10450
H          6.21990       -1.76430        0.78550
H          4.76660       -2.27810        1.67550
H          3.53990       -2.47140       -0.43930
H          4.99330       -1.95750       -1.32920
H          4.76660       -4.39940        0.45070
H          6.21990       -3.88560       -0.43930
