57
7S_Maresin1
C         -6.88570       -3.90150        2.58230
C         -5.56920       -3.81020        1.86930
C         -5.35780       -2.40540        1.38780
C         -4.04130       -2.31400        0.67470
C         -3.33460       -1.17490        0.66950
C         -3.83460        0.04990        1.37660
C         -3.33460        1.27460        0.66950
O         -3.79460        1.27460       -0.63160
C         -1.83460        1.27460        0.66950
C         -1.14240        2.42280        0.66950
C          0.35760        2.42280        0.66950
C          1.04970        1.27460        0.66950
C          2.54970        1.27460        0.66950
C          3.24180        2.42280        0.66950
C          4.74180        2.42280        0.66950
O          5.20180        3.72390        0.66950
C          5.24180        1.71570       -0.55520
C          4.74180        2.42280       -1.78000
C          5.05230        1.98360       -3.00800
C          5.91110        0.76920       -3.20190
C          5.52860        0.08540       -4.48100
C          4.58310       -0.86480       -4.50200
C          3.87320       -1.27880       -3.24710
C          3.47060       -2.71980       -3.35250
O         -7.99850       -3.66590        2.12530
O         -6.67620       -4.29860        3.86320
H         -3.69790        2.16460        1.18330
H          5.10510        1.90900        1.55950
H         -4.76590       -4.08470        2.55290
H         -5.56950       -4.49010        1.01730
H         -6.16110       -2.13080        0.70410
H         -5.35750       -1.72550        2.23970
H         -3.68120       -3.19610        0.16540
H         -2.38640       -1.10910        0.15600
H         -3.47120        0.04990        2.40430
H         -4.92460        0.04990        1.37660
H         -1.33010        0.31930        0.66950
H         -1.64690        3.37810        0.66950
H          0.86200        3.37810        0.66950
H          0.54530        0.31930        0.66950
H          3.05410        0.31930        0.66950
H          2.73740        3.37810        0.66950
H          5.76990        3.97130       -0.11540
H          4.87850        0.68800       -0.55520
H          6.33180        1.71570       -0.55520
H          4.12330        3.29740       -1.64030
H          4.69220        2.49290       -3.89000
H          5.76600        0.08440       -2.36640
H          6.95820        1.06830       -3.24890
H          6.03980        0.38350       -5.38480
H          4.30760       -1.35720       -5.42320
H          4.53870       -1.14900       -2.39360
H          2.98460       -0.66210       -3.11200
H          2.80510       -2.84960       -4.20600
H          2.95480       -3.02060       -2.44060
H          4.35920       -3.33640       -3.48760
H         -7.51070       -4.35210        4.30030
