57
7S_Maresin1
C         -4.22270       -4.97370        0.14430
C         -4.61460       -3.82500        1.02570
C         -3.59050       -2.73500        0.91130
C         -3.98230       -1.58630        1.79270
C         -4.75420       -0.59190        1.33150
C         -5.25420       -0.59190       -0.08270
C         -4.75420        0.63280       -0.78980
O         -5.21420        0.63280       -2.09090
C         -3.25420        0.63280       -0.78980
C         -2.56210        1.78100       -0.78980
C         -1.06210        1.78100       -0.78980
C         -0.37000        0.63280       -0.78980
C          1.13000        0.63280       -0.78980
C          1.82210       -0.51530       -0.78980
C          3.32210       -0.51530       -0.78980
O          3.78210       -1.16590        0.33700
C          3.82210        0.89890       -0.78980
C          5.32210        0.89890       -0.78980
C          6.01420        1.89320       -0.21570
C          5.31380        3.04190        0.44750
C          6.16340        4.27360        0.34220
C          5.75690        5.44130        0.86050
C          4.43760        5.55850        1.56470
C          3.90090        6.94860        1.39290
O         -4.85960       -5.44670       -0.79020
O         -3.01140       -5.44610        0.53390
H         -5.11760        1.52280       -0.27590
H          3.68550       -1.02920       -1.67980
H         -5.58720       -3.44380        0.71480
H         -4.67080       -4.16360        2.06030
H         -2.61780       -3.11620        1.22220
H         -3.53430       -2.39640       -0.12330
H         -3.62220       -1.58630        2.81120
H         -5.03640        0.23540        1.96630
H         -6.34420       -0.59190       -0.08270
H         -4.89090       -1.48190       -0.59650
H         -2.74980       -0.32250       -0.78980
H         -3.06650        2.73620       -0.78980
H         -0.55770        2.73620       -0.78980
H         -0.87440       -0.32250       -0.78980
H          1.63440        1.58810       -0.78980
H          1.31770       -1.47060       -0.78980
H          3.49580       -2.12040        0.42040
H          3.45880        1.41270        0.10020
H          3.45880        1.41270       -1.67980
H          5.82650        0.07160       -1.26740
H          7.09450        1.89320       -0.21570
H          5.14420        2.80630        1.49810
H          4.35720        3.21720       -0.04460
H          7.11350        4.18920       -0.16500
H          6.36870        6.32830        0.78460
H          3.73420        4.84230        1.14000
H          4.57250        5.34960        2.62600
H          4.60440        7.66470        1.81760
H          2.94230        7.03370        1.90460
H          3.76610        7.15740        0.33160
H         -2.77670       -6.16720       -0.02750
