57
7S_Maresin1
C         -6.27770        2.11170        5.63380
C         -6.97810        1.44850        4.48500
C         -6.12850        1.55390        3.25330
C         -6.82890        0.89070        2.10460
C         -6.13680        0.31660        1.11030
C         -4.63680        0.31660        1.11030
C         -4.13680        0.31660       -0.30400
O         -4.59680       -0.81020       -0.95450
C         -2.63680        0.31660       -0.30400
C         -1.94470       -0.83150       -0.30400
C         -0.44470       -0.83150       -0.30400
C          0.24740       -1.97970       -0.30400
C          1.74740       -1.97970       -0.30400
C          2.43960       -0.83150       -0.30400
C          3.93960       -0.83150       -0.30400
O          4.39960        0.46950       -0.30400
C          4.43960       -1.53860       -1.52870
C          3.93960       -0.83150       -2.75340
C          4.64630       -0.83670       -3.89260
C          5.96280       -1.54980       -3.98400
C          6.52400       -1.38860       -5.36570
C          7.84760       -1.37500       -5.57790
C          8.81570       -1.52040       -4.44140
C          9.15100       -0.16490       -3.89360
O         -5.49940        1.59740        6.42900
O         -6.63420        3.42050        5.68210
H         -4.50010        1.20660       -0.81780
H          4.30290       -1.34540        0.58600
H         -7.14770        0.39790        4.72060
H         -7.93470        1.94060        4.30980
H         -5.95890        2.60450        3.01770
H         -5.17190        1.06180        3.42860
H         -7.90920        0.89070        2.10460
H         -6.64120       -0.16110        0.28300
H         -4.27350       -0.57340        1.62410
H         -4.27350        1.20660        1.62410
H         -2.13240        1.27190       -0.30400
H         -2.44910       -1.78680       -0.30400
H          0.05970        0.12370       -0.30400
H         -0.25700       -2.93500       -0.30400
H          2.25190       -2.93500       -0.30400
H          1.93510        0.12370       -0.30400
H          4.96770        0.71690       -1.08880
H          4.07620       -2.56630       -1.52870
H          5.52960       -1.53860       -1.52870
H          2.99140       -0.31800       -2.68770
H          4.28620       -0.32750       -4.77470
H          5.81770       -2.60910       -3.77210
H          6.65680       -1.12580       -3.25820
H          5.82680       -1.28380       -6.18420
H          8.25170       -1.25890       -6.57300
H          8.36580       -2.12840       -3.65650
H          9.72530       -2.00320       -4.79850
H          9.60080        0.44310       -4.67850
H          9.85440       -0.27060       -3.06770
H          8.24130        0.31790       -3.53650
H         -6.18760        3.82570        6.40780
