57
7S_Maresin1
C         -3.16000       -0.76530       -5.50190
C         -4.26550       -1.15570       -4.56630
C         -3.88200       -0.79590       -3.16150
C         -3.64860        0.68300       -3.07010
C         -3.87930        1.35110       -1.93090
C         -4.37930        0.64390       -0.70620
C         -3.87930        1.35110        0.51860
O         -4.33930        2.65210        0.51860
C         -2.37930        1.35110        0.51860
C         -1.68720        2.49920        0.51860
C         -0.18720        2.49920        0.51860
C          0.50500        1.35110        0.51860
C          2.00500        1.35110        0.51860
C          2.69710        0.20290        0.51860
C          4.19710        0.20290        0.51860
O          4.65710       -0.44760       -0.60820
C          4.69710       -0.50420        1.74330
C          4.19710        0.20290        2.96800
C          3.96640       -0.46510        4.10720
C          4.19980       -1.94400        4.19860
C          3.86080       -2.41940        5.58030
C          2.62190       -2.83000        5.88640
C          1.52960       -2.82920        4.85830
C          0.41280       -1.93850        5.31600
O         -2.20480       -1.44880       -5.85280
O         -3.36340        0.50590       -5.93190
H         -4.24260        0.83720        1.40850
H          4.56040        1.23060        0.51860
H         -5.17790       -0.62620       -4.84080
H         -4.43520       -2.23040       -4.63260
H         -4.68540       -1.07960       -2.48150
H         -2.96970       -1.32540       -2.88690
H         -3.28850        1.19230       -3.95220
H         -3.71110        2.41610       -1.86510
H         -4.01590       -0.38370       -0.70620
H         -5.46930        0.64390       -0.70620
H         -1.87490        0.39580        0.51860
H         -2.19160        3.45450        0.51860
H          0.31730        3.45450        0.51860
H          0.00050        0.39580        0.51860
H          2.50940        2.30630        0.51860
H          2.19270       -0.75240        0.51860
H          4.37070       -0.04260       -1.47650
H          5.78710       -0.50420        1.74330
H          4.33370       -1.53190        1.74330
H          4.02890        1.26800        2.90230
H          3.60630        0.04410        4.98930
H          5.24690       -2.16040        3.98670
H          3.56880       -2.45700        3.47280
H          4.64740       -2.42000        6.32070
H          2.37770       -3.17240        6.88150
H          1.92280       -2.46100        3.91070
H          1.15420       -3.84390        4.72620
H          0.01960       -2.30660        6.26360
H         -0.38090       -1.93790        4.56900
H          0.78830       -0.92370        5.44810
H         -2.66230        0.73910       -6.51880
