57
7S_Maresin1
C         -7.31330       -2.68170        1.47990
C         -5.99680       -2.92290        0.80270
C         -5.14720       -1.69110        0.90800
C         -5.84760       -0.54240        0.24480
C         -5.15550        0.45190       -0.32930
C         -3.65550        0.45190       -0.32930
C         -3.15550        0.45190        1.08500
O         -3.61550        1.57870        1.73550
C         -1.65550        0.45190        1.08500
C         -0.96340        1.60000        1.08490
C          0.53660        1.60000        1.08490
C          1.22870        0.45190        1.08490
C          2.72870        0.45190        1.08490
C          3.42090       -0.69620        1.08490
C          4.92090       -0.69620        1.08490
O          5.38090       -0.04570        2.21170
C          5.42090        0.01090       -0.13980
C          4.92090       -0.69620       -1.36450
C          5.23140       -0.25710       -2.59250
C          6.09020        0.95740       -2.78650
C          6.27080        1.21290       -4.25350
C          5.41680        1.99370       -4.93040
C          4.24940        2.64020       -4.24540
C          4.65880        3.98500       -3.72200
O         -8.14720       -1.82650        1.20440
O         -7.47060       -3.57700        2.48780
H         -3.51880       -0.43810        1.59880
H          5.28420       -1.72390        1.08490
H         -5.48780       -3.75760        1.28460
H         -6.16640       -3.15850       -0.24800
H         -4.97760       -1.45560        1.95870
H         -4.19060       -1.86640        0.41590
H         -6.92790       -0.54240        0.24480
H         -5.65990        1.27920       -0.80690
H         -3.29220        1.34190       -0.84310
H         -3.29220       -0.43810       -0.84310
H         -1.15110       -0.50340        1.08500
H         -1.46780        2.55530        1.08490
H          1.04110        2.55530        1.08490
H          0.72430       -0.50340        1.08490
H          3.23320        1.40720        1.08490
H          2.91640       -1.65150        1.08490
H          5.94900        0.75770        2.03350
H          6.51090        0.01090       -0.13980
H          5.05750        1.03850       -0.13980
H          4.30240       -1.57090       -1.22490
H          4.87130       -0.76630       -3.47460
H          7.06320        0.79200       -2.32390
H          5.60990        1.81960       -2.32390
H          7.11160        0.74730       -4.74680
H          5.54690        2.17770       -5.98690
H          3.43200        2.76050       -4.95630
H          3.92100        2.01250       -3.41700
H          5.47620        3.86470       -3.01100
H          3.81040        4.45480       -3.22420
H          4.98720        4.61270       -4.55040
H         -8.30120       -3.41490        2.90520
