57
7S_Maresin1
C         -4.50180        3.73180       -4.51090
C         -4.26830        2.25290       -4.41950
C         -4.60730        1.77760       -3.03780
C         -4.37390        0.29870       -2.94650
C         -4.60460       -0.36940       -1.80730
C         -5.10460        0.33770       -0.58260
C         -4.60460       -0.36940        0.64220
O         -5.06460        0.28110        1.76900
C         -3.10460       -0.36940        0.64220
C         -2.41250       -1.51750        0.64220
C         -0.91240       -1.51750        0.64220
C         -0.22030       -2.66570        0.64220
C          1.27970       -2.66570        0.64220
C          1.97180       -1.51750        0.64220
C          3.47180       -1.51750        0.64220
O          3.93180       -1.51750       -0.65890
C          3.97180       -2.74230        1.34930
C          3.47180       -2.74230        2.76350
C          4.17850       -2.16820        3.74750
C          5.49500       -1.50500        3.47000
C          5.70650       -0.38560        4.44590
C          6.42090        0.69840        4.11150
C          7.03480        0.83130        2.74940
C          7.77060        2.13530        2.65770
O         -3.67940        4.60070       -4.77800
O         -5.80620        3.99780       -4.24650
H         -4.96790       -1.39710        0.64220
H          3.83510       -0.62760        1.15600
H         -4.89940        1.73990       -5.14530
H         -3.22120        2.03660       -4.63150
H         -3.97630        2.29050       -2.31210
H         -5.65440        1.99390       -2.82590
H         -4.01380       -0.21060       -3.82850
H         -4.43640       -1.43450       -1.74150
H         -6.19460        0.33770       -0.58250
H         -4.74120        1.36540       -0.58260
H         -2.60010        0.58590        0.64220
H         -2.91690       -2.47280        0.64220
H         -0.40800       -0.56230        0.64220
H         -0.72480       -3.62100        0.64220
H          1.78410       -3.62100        0.64220
H          1.46740       -0.56230        0.64220
H          4.49990       -2.30240       -0.90630
H          5.06180       -2.74230        1.34930
H          3.60850       -3.63230        0.83550
H          2.52370       -3.21990        2.96330
H          3.81840       -2.16820        4.76600
H          5.49470       -1.10710        2.45530
H          6.29840       -2.23430        3.57410
H          5.26430       -0.48140        5.42690
H          6.57320        1.50460        4.81430
H          7.73070        0.00910        2.58270
H          6.25060        0.80270        1.99300
H          7.07470        2.95760        2.82440
H          8.21670        2.23190        1.66790
H          8.55490        2.16400        3.41410
H         -5.93980        4.92990       -4.30710
