57
7S_Maresin1
C         -7.36700       -0.32900       -4.38020
C         -6.50830        0.88540       -4.18630
C         -5.27480        0.50850       -3.42040
C         -4.41600        1.72300       -3.22650
C         -4.10550        2.16210       -1.99850
C         -4.60550        1.45500       -0.77380
C         -4.10550        2.16210        0.45100
O         -4.56550        3.46320        0.45100
C         -2.60550        2.16210        0.45100
C         -1.91340        1.01400        0.45100
C         -0.41340        1.01400        0.45100
C          0.27870       -0.13410        0.45100
C          1.77870       -0.13410        0.45100
C          2.47090       -1.28230        0.45100
C          3.97090       -1.28230        0.45100
O          4.43090       -1.93280       -0.67580
C          4.47090       -1.98940        1.67570
C          5.97090       -1.98940        1.67570
C          6.66300       -0.99510        2.24980
C          5.96260        0.15370        2.91300
C          5.72910       -0.17050        4.35880
C          6.75340       -0.42820        5.18450
C          8.17020       -0.40170        4.69260
C          9.09890       -0.72530        5.82520
O         -6.99870       -1.49420       -4.47650
O         -8.66990        0.04670       -4.43830
H         -4.46880        1.64830        1.34100
H          4.33420       -0.25460        0.45100
H         -6.22350        1.28810       -5.15830
H         -7.06530        1.63920       -3.62980
H         -5.55950        0.10590       -2.44840
H         -4.71780       -0.24520       -3.97690
H         -4.05590        2.23220       -4.10860
H         -3.48700        3.03680       -1.85880
H         -4.24220        0.42740       -0.77380
H         -5.69550        1.45500       -0.77380
H         -2.10110        3.11740        0.45100
H         -2.41780        0.05870        0.45100
H          0.09100        1.96930        0.45100
H         -0.22570       -1.08940        0.45100
H          2.28320        0.82110        0.45100
H          1.96640       -2.23760        0.45100
H          4.99900       -2.73630       -0.49760
H          4.10750       -3.01710        1.67570
H          4.10750       -1.47560        2.56570
H          6.47530       -2.81670        1.19810
H          7.74330       -0.99510        2.24980
H          5.00590        0.32890        2.42090
H          6.57990        1.04870        2.83650
H          4.70870       -0.18960        4.71310
H          6.58520       -0.66170        6.22580
H          8.29330       -1.13940        3.89960
H          8.40170        0.59040        4.30500
H          8.97570        0.01230        6.61810
H         10.12840       -0.70610        5.46770
H          8.86730       -1.71750        6.21280
H         -9.19890       -0.72500       -4.56030
