57
7S_Maresin1
C         -6.30690       -2.67520        1.55430
C         -6.30650       -1.27860        2.10180
C         -6.09500       -0.30280        0.98240
C         -4.77850       -0.58020        0.31920
C         -4.07180        0.40370       -0.25490
C         -4.57180        1.81800       -0.25490
C         -4.07180        2.52510       -1.47960
O         -4.53180        1.87450       -2.60640
C         -2.57180        2.52510       -1.47960
C         -1.87970        3.67320       -1.47960
C         -0.37970        3.67320       -1.47960
C          0.31240        2.52510       -1.47960
C          1.81240        2.52510       -1.47960
C          2.50460        1.37690       -1.47960
C          4.00460        1.37690       -1.47960
O          4.46460        1.37690       -2.78070
C          4.50460        0.15220       -0.77250
C          6.00460        0.15220       -0.77250
C          6.69670       -0.42190        0.22180
C          5.99630       -1.08510        1.37060
C          7.01340       -1.63640        2.32530
C          6.63880       -2.28000        3.44010
C          5.18900       -2.47230        3.77320
C          4.88700       -3.93880        3.86380
O         -5.95180       -3.69970        2.12610
O         -6.77450       -2.65800        0.28020
H         -4.43510        3.55270       -1.47960
H          4.36790        2.26690       -0.96580
H         -7.26310       -1.07700        2.58380
H         -5.50310       -1.17460        2.83110
H         -6.89840       -0.40690        0.25310
H         -6.09470        0.71200        1.38030
H         -4.41850       -1.59870        0.31920
H         -3.12370        0.20390       -0.73250
H         -4.20850        2.33180        0.63510
H         -5.66180        1.81800       -0.25490
H         -2.06740        1.56980       -1.47960
H         -2.38410        4.62850       -1.47960
H          0.12470        4.62850       -1.47960
H         -0.19200        1.56980       -1.47960
H          2.31690        3.48040       -1.47960
H          2.00010        0.42160       -1.47960
H          5.03270        0.59200       -3.02810
H          4.14120       -0.73780       -1.28630
H          4.14120        0.15220        0.25520
H          6.50900        0.62980       -1.59980
H          7.77700       -0.42190        0.22180
H          5.37220       -1.89650        0.99600
H          5.37220       -0.35510        1.88600
H          8.05750       -1.49790        2.08540
H          7.37130       -2.67700        4.12770
H          4.96950       -1.99650        4.72900
H          4.57430       -2.02220        2.99370
H          5.10640       -4.41460        2.90800
H          3.83340       -4.07850        4.10580
H          5.50170       -4.38890        4.64330
H         -6.76980       -3.54100       -0.05220
