53
Oleic_acid
C         -1.54120        8.62240        0.85790
C         -1.04120        7.20820        0.85790
C         -1.54120        6.50110       -0.36690
C         -1.04120        5.08690       -0.36690
C         -1.54120        4.37980       -1.59160
C         -1.04120        2.96560       -1.59160
C          0.45880        2.96560       -1.59160
C          0.95880        1.55140       -1.59160
C          2.45880        1.55140       -1.59160
C          3.15090        0.40320       -1.59160
C          2.45050       -0.92320       -1.59160
C          2.21700       -1.36540       -0.17740
C          1.51660       -2.69180       -0.17740
C          1.28320       -3.13390        1.23680
C          0.58280       -4.46040        1.23680
C         -0.73370       -4.33060        0.52970
C         -1.43410       -5.65710        0.52970
C         -1.66760       -6.09920        1.94390
O         -2.70630       -5.79210        2.54750
O         -0.78810       -6.78190        2.48980
H         -2.63120        8.62240        0.85790
H         -1.17790        9.13630       -0.03210
H         -1.17790        9.13630        1.74780
H         -1.40460        6.69440        1.74780
H          0.04880        7.20820        0.85790
H         -1.17790        7.01490       -1.25690
H         -2.63120        6.50110       -0.36690
H          0.04880        5.08690       -0.36690
H         -1.40460        4.57310        0.52310
H         -2.63120        4.37980       -1.59160
H         -1.17790        4.89360       -2.48160
H         -1.40460        2.45180       -2.48160
H         -1.40460        2.45180       -0.70160
H          0.82210        3.47940       -2.48160
H          0.82210        3.47940       -0.70160
H          0.59540        1.03750       -2.48160
H          0.59540        1.03750       -0.70160
H          2.96320        2.50670       -1.59160
H          4.23120        0.40320       -1.59160
H          3.06780       -1.66010       -2.10550
H          1.49380       -0.82890       -2.10550
H          3.17370       -1.45960        0.33640
H          1.59970       -0.62850        0.33640
H          2.13400       -3.42870       -0.69120
H          0.56000       -2.59750       -0.69120
H          2.23980       -3.22820        1.75060
H          0.66580       -2.39710        1.75060
H          0.41310       -4.78170        2.26450
H          1.20010       -5.19720        0.72300
H         -1.35110       -3.59380        1.04350
H         -0.56410       -4.00940       -0.49800
H         -2.39080       -5.56280        0.01590
H         -0.81680       -6.39390        0.01590
