53
Oleic_acid
C         -6.02910        6.46230        3.48560
C         -5.52910        5.04800        3.48560
C         -6.02910        4.34090        2.26080
C         -5.52910        2.92670        2.26080
C         -4.02910        2.92670        2.26080
C         -3.52910        1.51250        2.26080
C         -2.02910        1.51250        2.26080
C         -1.52910        0.09830        2.26080
C         -0.02910        0.09830        2.26080
C          0.66310        0.09830        1.11270
C         -0.03730        0.09830       -0.21380
C          0.81220       -0.60880       -1.22780
C          2.12870        0.09830       -1.35750
C          2.97830       -0.60880       -2.37150
C          3.21170       -2.02300       -1.92940
C          4.06130       -2.73010       -2.94340
C          4.29480       -4.14430       -2.50130
C          5.14430       -4.85150       -3.51530
O          4.73100       -5.86120       -4.10450
O          6.27350       -4.39340       -3.74520
H         -7.11910        6.46230        3.48560
H         -5.66570        6.97610        2.59560
H         -5.66570        6.97610        4.37550
H         -5.89240        4.53420        4.37550
H         -4.43910        5.04800        3.48560
H         -5.66570        4.85480        1.37080
H         -7.11910        4.34090        2.26080
H         -5.89240        2.41290        3.15080
H         -5.89240        2.41290        1.37080
H         -3.66570        3.44060        1.37080
H         -3.66570        3.44060        3.15080
H         -3.89240        0.99870        1.37080
H         -3.89240        0.99870        3.15080
H         -1.66570        2.02630        1.37080
H         -1.66570        2.02630        3.15080
H         -1.89240       -0.41550        1.37080
H         -1.89240       -0.41550        3.15080
H          0.47540        0.09830        3.21610
H          1.74330        0.09830        1.11270
H         -0.20700        1.12600       -0.53510
H         -0.99400       -0.41550       -0.11950
H          0.98190       -1.63650       -0.90650
H          0.30330       -0.60880       -2.19170
H          2.63770        0.09830       -0.39360
H          1.95910        1.12600       -1.67880
H          2.46930       -0.60880       -3.33540
H          3.93490       -0.09500       -2.46580
H          2.25510       -2.53690       -1.83510
H          3.72070       -2.02300       -0.96550
H          3.55240       -2.73010       -3.90730
H          5.01800       -2.21630       -3.03770
H          4.80370       -4.14430       -1.53740
H          3.33810       -4.65820       -2.40700
