53
Oleic_acid
C         -6.83020        1.78270        0.54760
C         -6.33020        2.48980        1.77230
C         -4.83020        2.48980        1.77230
C         -4.33020        3.19690        2.99700
C         -2.83020        3.19690        2.99700
C         -2.33020        1.78270        2.99700
C         -0.83020        1.78270        2.99700
C         -0.33020        0.36850        2.99700
C          1.16980        0.36850        2.99700
C          1.86190       -0.62590        2.42300
C          1.16150       -1.77460        1.75970
C          0.92810       -1.45040        0.31390
C          2.24460       -1.20920       -0.36330
C          2.01110       -0.88500       -1.80910
C          3.32760       -0.64380       -2.48640
C          3.09410       -0.31960       -3.93220
C          2.39370       -1.46830       -4.59540
C          3.24330       -2.70000       -4.49000
O          2.73150       -3.82830       -4.43900
O          4.47410       -2.55330       -4.45560
H         -6.46680        0.75500        0.54760
H         -6.46680        2.29650       -0.34240
H         -7.92020        1.78270        0.54760
H         -6.69350        1.97600        2.66230
H         -6.69350        3.51740        1.77230
H         -4.46680        3.00360        0.88230
H         -4.46680        1.46210        1.77230
H         -4.69350        4.22460        2.99700
H         -4.69350        2.68310        3.88700
H         -2.46680        3.71070        2.10710
H         -2.46680        3.71070        3.88700
H         -2.69350        1.26880        2.10710
H         -2.69350        1.26880        3.88700
H         -0.46680        2.29650        2.10710
H         -0.46680        2.29650        3.88700
H         -0.69350       -0.14540        2.10710
H         -0.69350       -0.14540        3.88700
H          1.67420        1.19580        3.47470
H          2.94220       -0.62590        2.42300
H          0.20490       -1.94990        2.25190
H          1.77890       -2.66960        1.83630
H          0.41910       -2.28510       -0.16800
H          0.31070       -0.55530        0.23740
H          2.86190       -2.10420       -0.28670
H          2.75350       -0.37440        0.11860
H          1.50210       -1.71970       -2.29110
H          1.39380        0.01010       -1.88570
H          3.94500       -1.53880       -2.40980
H          3.83660        0.19100       -2.00440
H          2.47680        0.57550       -4.00870
H          4.05080       -0.14430       -4.42430
H          1.43710       -1.64360       -4.10330
H          2.22410       -1.23270       -5.64600
