53
Oleic_acid
C         -1.63980        6.89530        2.74450
C         -1.13980        7.60240        1.51970
C         -1.63980        6.89530        0.29500
C         -1.13980        5.48110        0.29500
C         -1.63980        4.77400       -0.92980
C         -1.13980        3.35980       -0.92980
C         -1.63980        2.65260        0.29500
C         -1.13980        1.23840        0.29500
C          0.36020        1.23840        0.29500
C          1.05230        0.66440       -0.69930
C          0.35190        0.00110       -1.84810
C          1.20150       -1.11820       -2.37270
C          1.43490       -2.12190       -1.28270
C          2.28450       -3.24130       -1.80730
C          2.51800       -4.24500       -0.71730
C          1.20150       -4.79250       -0.25140
C          1.43490       -5.79610        0.83870
C          0.11840       -6.34370        1.30460
O         -0.24700       -6.21630        2.48260
O         -0.59250       -6.92770        0.47330
H         -1.27650        5.86760        2.74450
H         -2.72980        6.89530        2.74450
H         -1.27650        7.40910        3.63450
H         -0.04980        7.60240        1.51970
H         -1.50310        8.63010        1.51970
H         -1.27650        7.40910       -0.59500
H         -2.72980        6.89530        0.29500
H         -0.04980        5.48110        0.29500
H         -1.50310        4.96720        1.18500
H         -2.72980        4.77400       -0.92980
H         -1.27650        5.28780       -1.81970
H         -0.04980        3.35980       -0.92980
H         -1.50310        2.84590       -1.81970
H         -1.27650        3.16650        1.18500
H         -2.72980        2.65260        0.29500
H         -1.50310        0.72460       -0.59500
H         -1.50310        0.72460        1.18500
H          0.86460        1.71610        1.12230
H          2.13260        0.66440       -0.69930
H          0.18220        0.73050       -2.64010
H         -0.60480       -0.39670       -1.50950
H          0.69250       -1.60020       -3.20740
H          2.15810       -0.72040       -2.71120
H          0.47830       -2.51980       -0.94410
H          1.94390       -1.64000       -0.44790
H          1.77550       -3.72320       -2.64200
H          3.24120       -2.84340       -2.14580
H          3.02690       -3.76300        0.11750
H          3.13530       -5.05840       -1.09850
H          0.58410       -3.97910        0.12990
H          0.69250       -5.27440       -1.08610
H          2.05230       -6.60960        0.45740
H          1.94390       -5.31420        1.67340
