53
Oleic_acid
C         -4.94610        8.40640        0.55150
C         -4.44610        6.99210        0.55150
C         -2.94610        6.99210        0.55150
C         -2.44610        5.57790        0.55150
C         -0.94610        5.57790        0.55150
C         -0.44610        4.16370        0.55150
C         -0.94610        3.45660        1.77630
C         -0.44610        2.04240        1.77630
C          1.05390        2.04240        1.77630
C          1.74600        1.04810        1.20220
C          1.04560       -0.10070        0.53900
C          1.89520       -1.33240        0.64430
C          1.19480       -2.48110       -0.01890
C          2.04430       -3.71280        0.08650
C          1.34390       -4.86160       -0.57670
C          2.19350       -6.09330       -0.47140
C          1.49310       -7.24200       -1.13460
C          1.25960       -6.91780       -2.58040
O          2.09910       -7.20890       -3.44540
O          0.19990       -6.34930       -2.88250
H         -4.58280        8.92020       -0.33850
H         -4.58280        8.92020        1.44150
H         -6.03610        8.40640        0.55150
H         -4.80940        6.47830       -0.33850
H         -4.80940        6.47830        1.44150
H         -2.58280        7.50600        1.44150
H         -2.58280        7.50600       -0.33850
H         -2.80940        5.06410        1.44150
H         -2.80940        5.06410       -0.33850
H         -0.58280        6.09180       -0.33850
H         -0.58280        6.09180        1.44150
H          0.64390        4.16370        0.55150
H         -0.80940        3.64990       -0.33850
H         -0.58280        3.97040        2.66620
H         -2.03610        3.45660        1.77630
H         -0.80940        1.52860        0.88630
H         -0.80940        1.52860        2.66620
H          1.55830        2.86970        2.25390
H          2.82630        1.04810        1.20220
H          0.87600        0.13490       -0.51170
H          0.08900       -0.27590        1.03110
H          2.85180       -1.15710        0.15220
H          2.06480       -1.56800        1.69500
H          1.02510       -2.24550       -1.06950
H          0.23810       -2.65640        0.47320
H          3.00100       -3.53750       -0.40560
H          2.21400       -3.94840        1.13710
H          1.17430       -4.62600       -1.62740
H          0.38730       -5.03680       -0.08460
H          3.15020       -5.91800       -0.96350
H          2.36310       -6.32890        0.57920
H          2.11040       -8.13710       -1.05800
H          0.53640       -7.41730       -0.64250
