53
Oleic_acid
C         -6.20320        4.91070        1.45870
C         -5.70320        3.49650        1.45870
C         -4.20320        3.49650        1.45870
C         -3.70320        2.08230        1.45870
C         -2.20320        2.08230        1.45870
C         -1.70320        2.78940        2.68350
C         -0.20320        2.78940        2.68350
C          0.29680        1.37520        2.68350
C          1.79680        1.37520        2.68350
C          2.48890        0.22700        2.68350
C          1.78850       -1.09940        2.68350
C          2.18030       -1.87170        1.45870
C          1.78850       -1.09940        0.23400
C          2.18030       -1.87170       -0.99080
C          1.78850       -1.09940       -2.21550
C          2.18030       -1.87170       -3.44030
C          1.47990       -3.19820       -3.44030
C          1.87170       -3.97050       -4.66500
O          1.41490       -5.10280       -4.88110
O          2.66730       -3.43970       -5.45430
H         -5.83990        5.42450        0.56870
H         -5.83990        5.42450        2.34870
H         -7.29320        4.91070        1.45870
H         -6.06660        2.98270        0.56870
H         -6.06660        2.98270        2.34870
H         -3.83990        4.01030        2.34870
H         -3.83990        4.01030        0.56870
H         -4.06660        1.56850        2.34870
H         -4.06660        1.56850        0.56870
H         -1.83990        1.05460        1.45870
H         -1.83990        2.59610        0.56870
H         -2.06660        2.27560        3.57350
H         -2.06660        3.81710        2.68350
H          0.16010        3.30320        1.79350
H          0.16010        3.30320        3.57350
H         -0.06660        0.86140        1.79350
H         -0.06660        0.86140        3.57350
H          2.30120        2.33050        2.68350
H          3.56920        0.22700        2.68350
H          0.71010       -0.94080        2.68350
H          2.07320       -1.66060        3.57350
H          3.25870       -2.03030        1.45870
H          1.67130       -2.83560        1.45870
H          2.29740       -0.13550        0.23400
H          0.71010       -0.94080        0.23400
H          3.25870       -2.03030       -0.99080
H          1.67130       -2.83560       -0.99080
H          2.29740       -0.13550       -2.21550
H          0.71010       -0.94080       -2.21550
H          1.89560       -1.31050       -4.33020
H          3.25870       -2.03030       -3.44030
H          1.76460       -3.75940       -2.55030
H          0.40150       -3.03960       -3.44030
