53
Oleic_acid
C         -0.32040        6.56720       -2.06810
C         -1.82040        6.56720       -2.06810
C         -2.32040        5.86010       -0.84340
C         -1.82040        4.44590       -0.84340
C         -2.32040        3.73880       -2.06810
C         -1.82040        2.32460       -2.06810
C         -2.32040        1.61750       -3.29290
C         -1.82040        0.20320       -3.29290
C         -0.32040        0.20320       -3.29290
C          0.37170       -0.79110       -2.71880
C         -0.32870       -1.93980       -2.05560
C          0.52090       -2.46440       -0.93620
C         -0.17950       -3.61320       -0.27300
C          0.67010       -4.13780        0.84640
C          0.90350       -3.04780        1.85010
C          1.75310       -3.57240        2.96950
C          1.98660       -2.48240        3.97310
C          2.83610       -3.00700        5.09250
O          3.60360       -2.26030        5.71780
O          2.74600       -4.21170        5.37220
H          0.04300        5.53950       -2.06810
H          0.04300        7.08100       -1.17820
H          0.04300        7.08100       -2.95810
H         -2.18370        6.05340       -2.95810
H         -2.18370        7.59490       -2.06810
H         -3.41040        5.86010       -0.84340
H         -1.95700        6.37390        0.04660
H         -0.73040        4.44590       -0.84340
H         -2.18370        3.93200        0.04660
H         -3.41040        3.73880       -2.06810
H         -1.95700        4.25260       -2.95810
H         -2.18370        1.81070       -1.17820
H         -0.73040        2.32460       -2.06810
H         -3.41040        1.61750       -3.29290
H         -1.95700        2.13130       -4.18290
H         -2.18370       -0.31060       -4.18290
H         -2.18370       -0.31060       -2.40290
H          0.18400        1.03050       -3.77050
H          1.45200       -0.79110       -2.71880
H         -0.49830       -2.73190       -2.78490
H         -1.28530       -1.60130       -1.65770
H          1.47760       -2.80300       -1.33410
H          0.69060       -1.67230       -0.20690
H         -0.34920       -4.40520       -1.00230
H         -1.13620       -3.27460        0.12490
H          0.16110       -4.97250        1.32830
H          1.62670       -4.47630        0.44850
H         -0.05310       -2.70920        2.24790
H          1.41250       -2.21300        1.36810
H          1.24410       -4.40710        3.45140
H          2.70980       -3.91090        2.57160
H          2.49550       -1.64760        3.49120
H          1.02990       -2.14380        4.37100
