57
7R_Maresin1
C         -5.92230        0.45300       -3.32790
C         -4.60580        1.02490       -2.89230
C         -4.68320        1.41200       -1.44520
C         -3.36670        1.98390       -1.00950
C         -2.66000        1.41880       -0.02040
C         -3.16000        0.19410        0.68670
C         -2.66000        0.19410        2.10100
O         -3.12000        1.32080        2.75150
C         -1.16000        0.19410        2.10100
C         -0.46780        1.34220        2.10100
C          1.03220        1.34220        2.10100
C          1.72430        0.19410        2.10100
C          3.22430        0.19410        2.10100
C          3.91640       -0.95410        2.10100
C          3.21600       -2.28050        2.10100
O          3.99760       -3.21340        2.75150
C          2.98250       -2.72270        0.68670
C          2.13300       -1.70860       -0.02040
C          2.57990       -1.07170       -1.11210
C          3.94570       -1.34980       -1.66620
C          4.47510       -0.11560       -2.33440
C          4.64420        1.02410       -1.64910
C          4.31020        1.10660       -0.18910
C          5.20360        2.11400        0.47210
O         -6.73270       -0.15870       -2.64110
O         -6.11060        0.71280       -4.64670
H         -3.02330       -0.69590        2.61480
H          2.25930       -2.18620        2.61480
H         -3.82300        0.27850       -3.02730
H         -4.37580        1.90540       -3.49220
H         -4.91320        0.53150       -0.84520
H         -5.46610        2.15830       -1.31010
H         -3.00660        2.86600       -1.51880
H         -1.71180        1.83070        0.29340
H         -2.79660       -0.69590        0.17290
H         -4.25000        0.19410        0.68670
H         -0.65550       -0.76120        2.10100
H         -0.97230        2.29750        2.10100
H          1.53660        2.29750        2.10100
H          1.21990       -0.76120        2.10100
H          3.72870        1.14940        2.10100
H          4.99670       -0.95410        2.10100
H          4.20510       -2.99910        3.70600
H          2.47360       -3.68650        0.68670
H          3.93920       -2.81690        0.17290
H          1.14930       -1.50830        0.37870
H          1.96800       -0.34140       -1.62130
H          4.61460       -1.63940       -0.85570
H          3.88480       -2.15920       -2.39370
H          4.71560       -0.17500       -3.38590
H          5.02540        1.91300       -2.13040
H          3.27010        1.41050       -0.07090
H          4.45840        0.13070        0.27330
H          6.24370        1.81010        0.35390
H          4.96090        2.17390        1.53300
H          5.05540        3.08990        0.00970
H         -6.94090        0.34850       -4.90800
