57
7R_Maresin1
C         -6.66460       -0.48350        2.17970
C         -5.18060       -0.29450        2.07060
C         -4.78870       -0.23800        0.62380
C         -5.48910        0.91070       -0.03940
C         -4.79700        1.90500       -0.61350
C         -3.29700        1.90500       -0.61350
C         -2.79700        2.61210        0.61120
O         -3.25700        3.91320        0.61120
C         -1.29700        2.61210        0.61120
C         -0.60490        3.76030        0.61120
C          0.89510        3.76030        0.61120
C          1.58720        2.61210        0.61120
C          3.08720        2.61210        0.61120
C          3.77930        1.46400        0.61120
C          3.07890        0.13750        0.61120
O          3.43940       -0.57300        1.73800
C          3.47070       -0.63480       -0.61350
C          4.95480       -0.85300       -0.61350
C          5.55600       -1.52160       -1.60780
C          4.76660       -2.07590       -2.75660
C          4.32530       -3.47240       -2.43240
C          5.08720       -4.52960       -2.74710
C          6.40870       -4.35460       -3.43480
C          6.20690       -4.38500       -4.92090
O         -7.52430        0.38840        2.23840
O         -6.94770       -1.81060        2.20650
H         -3.16040        2.09830        1.50120
H          2.00050        0.29610        0.61120
H         -4.89580        0.63650        2.56070
H         -4.67160       -1.12920        2.55250
H         -5.07350       -1.16910        0.13360
H         -3.71030       -0.10070        0.54450
H         -6.56940        0.91070       -0.03940
H         -5.30150        2.73230       -1.09120
H         -2.93370        2.41880       -1.50350
H         -2.93370        0.87740       -0.61350
H         -0.79260        1.65680        0.61120
H         -1.10930        4.71560        0.61120
H          1.39950        4.71560        0.61120
H          1.08280        1.65680        0.61120
H          3.59160        3.56740        0.61120
H          4.85960        1.46400        0.61120
H          3.88460       -1.45050        1.55980
H          3.18600       -0.07360       -1.50350
H          2.96180       -1.59870       -0.61350
H          5.52330       -0.45380        0.21380
H          6.62480       -1.67880       -1.60780
H          3.89170       -1.44980       -2.93180
H          5.38850       -2.09000       -3.65160
H          3.37360       -3.59840       -1.93700
H          4.76940       -5.53540       -2.51360
H          6.84420       -3.39780       -3.14680
H          7.08010       -5.16200       -3.14270
H          5.77130       -5.34180       -5.20890
H          7.16710       -4.25780       -5.42060
H          5.53550       -3.57750       -5.21300
H         -7.88280       -1.91590        2.27520
