57
7R_Maresin1
C         -6.97700        5.34950       -2.08900
C         -5.49290        5.45860       -2.27790
C         -4.79250        4.79540       -1.12920
C         -3.30850        4.90450       -1.31820
C         -2.45670        4.38690       -0.42160
C         -2.95670        3.67980        0.80310
C         -2.45670        2.26560        0.80310
O         -2.91670        1.61500        1.92990
C         -0.95670        2.26560        0.80310
C         -0.26460        1.11740        0.80310
C          1.23540        1.11740        0.80310
C          1.92750       -0.03070        0.80310
C          3.42750       -0.03070        0.80310
C          4.11960       -1.17890        0.80310
C          3.41920       -2.50530        0.80310
O          3.20450       -2.91210        2.10420
C          4.26880       -3.51930        0.09600
C          5.58530       -3.64900        0.80310
C          6.26270       -4.80590        0.79790
C          5.72870       -6.01280        0.08480
C          4.39960       -6.39090        0.66830
C          3.45890       -6.98450       -0.08000
C          3.70120       -7.29210       -1.52800
C          2.68620       -6.57510       -2.36810
O         -7.71410        4.45230       -2.48190
O         -7.42140        6.42610       -1.39200
H         -2.82000        1.75170       -0.08690
H          2.46260       -2.41100        0.28930
H         -5.20820        4.96850       -3.20900
H         -5.20820        6.51000       -2.31900
H         -5.07730        3.74410       -1.08820
H         -5.07730        5.28560       -0.19820
H         -2.94840        5.41380       -2.20020
H         -1.38790        4.46550       -0.55770
H         -4.04670        3.67980        0.80310
H         -2.59340        4.19360        1.69310
H         -0.45230        3.22090        0.80310
H         -0.76900        0.16210        0.80310
H          1.73980        2.07270        0.80310
H          1.42310       -0.98600        0.80310
H          3.93200        0.92460        0.80310
H          5.19990       -1.17890        0.80310
H          2.64410       -2.29230        2.65370
H          4.43850       -3.19800       -0.93170
H          3.75990       -4.48320        0.09600
H          5.96990       -2.77990        1.31670
H          7.21080       -4.89940        1.30720
H          5.60910       -5.78550       -0.97450
H          6.42620       -6.84220        0.20200
H          4.22510       -6.16940        1.71120
H          2.50170       -7.25690        0.34020
H          4.70200       -6.96230       -1.80690
H          3.61410       -8.36630       -1.69080
H          1.68540       -6.90490       -2.08910
H          2.86230       -6.79860       -3.42030
H          2.77330       -5.50090       -2.20530
H         -8.35480        6.34550       -1.28000
