57
7R_Maresin1
C         -3.24410        4.44130       -3.10620
C         -3.94450        4.44130       -1.77980
C         -4.80320        3.21650       -1.66780
C         -5.50360        3.21650       -0.34140
C         -4.81150        3.21650        0.80680
C         -3.31150        3.21650        0.80680
C         -2.81150        2.50940        2.03150
O         -3.27150        3.15990        3.15830
C         -1.31150        2.50940        2.03150
C         -0.61940        1.36130        2.03150
C          0.88060        1.36130        2.03150
C          1.57270        0.21310        2.03150
C          3.07270        0.21310        2.03150
C          3.76480       -0.93500        2.03150
C          3.06440       -2.26150        2.03150
O          3.84600       -3.19440        2.68210
C          2.83100       -2.70360        0.61730
C          2.13060       -4.03000        0.61730
C          2.68670       -5.10640        0.04320
C          4.02950       -5.02340       -0.62000
C          3.97470       -4.02330       -1.73660
C          3.12950       -4.18010       -2.76530
C          2.20780       -5.36140       -2.83710
C          0.91200       -5.02630       -2.15990
O         -2.89620        5.41470       -3.76500
O         -3.03430        3.16050       -3.50340
H         -3.17480        1.48170        2.03150
H          2.10780       -2.16720        2.54530
H         -3.20540        4.44130       -0.97860
H         -4.56850        5.33120       -1.69840
H         -4.17920        2.32650       -1.74920
H         -5.54230        3.21650       -2.46890
H         -6.58390        3.21650       -0.34140
H         -5.31590        3.21650        1.76210
H         -2.94820        4.24420        0.80680
H         -2.94820        2.70270       -0.08320
H         -0.80710        3.46470        2.03150
H         -1.12380        0.40600        2.03150
H          1.38500        2.31660        2.03150
H          1.06830       -0.74220        2.03150
H          3.57720        1.16840        2.03150
H          4.84510       -0.93500        2.03150
H          4.05350       -2.98010        3.63650
H          3.78760       -2.79790        0.10350
H          2.21360       -1.96670        0.10350
H          1.16350       -4.08980        1.09490
H          2.18230       -6.06160        0.04320
H          4.77670       -4.71220        0.11010
H          4.29790       -6.00090       -1.02060
H          4.63860       -3.17260       -1.68490
H          3.09000       -3.45990       -3.56950
H          2.01820       -5.61130       -3.88100
H          2.66920       -6.21320       -2.33760
H          1.10160       -4.77630       -1.11600
H          0.24220       -5.88470       -2.21210
H          0.45050       -4.17450       -2.65950
H         -2.59380        3.17420       -4.33770
