58
PGF2a
C         -1.35780        1.10120        1.88430
C          0.14220        1.10120        1.88430
C          0.83430        0.10690        2.45840
C          2.33430        0.10690        2.45840
O          2.79430        1.23360        3.10890
C          2.83430       -1.11790        3.16550
C          2.33430       -2.34260        2.45840
C          2.83430       -2.34260        1.04410
C          4.33430       -2.34260        1.04410
C          4.83430       -3.56740        1.75130
C         -1.88290        0.31540        3.08820
O         -3.15510        0.74790        3.40260
C         -1.93290       -1.15320        2.63520
C         -1.73610       -1.14580        1.11010
O         -0.46760       -1.59460        0.80370
C         -1.87930        0.31670        0.68190
C         -1.13510        0.62730       -0.58290
C         -1.68480       -0.20450       -1.70360
C         -1.66530        0.23880       -2.96860
C         -1.09300        1.58280       -3.30940
C         -0.52700        1.54780       -4.69810
C         -1.61460        1.20570       -5.67280
C         -1.04870        1.17060       -7.06150
O         -1.47750        1.92560       -7.94680
O         -0.13810        0.36210       -7.29530
H         -1.68420        2.14270        1.88430
H          2.69760        0.10690        1.43070
H         -1.26730        0.46000        3.97800
H         -2.44000       -1.79990        0.59240
H         -2.93100        0.55510        0.50890
H          0.64660        1.92850        1.40660
H          0.32990       -0.72040        2.93600
H          2.50790        2.10200        2.70390
H          2.47100       -1.11790        4.19310
H          3.92430       -1.11790        3.16550
H          2.69760       -3.23260        2.97220
H          1.24430       -2.34260        2.45840
H          2.47100       -3.23260        0.53030
H          2.47100       -1.45260        0.53030
H          4.69760       -2.34260        0.01650
H          4.69760       -1.45260        1.55800
H          4.47100       -3.56740        2.77890
H          4.47100       -4.45730        1.23740
H          5.92430       -3.56740        1.75130
H         -3.26600        1.09280        4.33470
H         -2.88800       -1.60580        2.90900
H         -1.15190       -1.74320        3.11880
H          0.27720       -1.07390        1.22090
H         -0.07760        0.40070       -0.44710
H         -1.25240        1.68390       -0.82330
H         -2.09690       -1.17250       -1.45810
H         -2.06110       -0.36020       -3.77570
H         -0.30270        1.83140       -2.60110
H         -1.87880        2.33640       -3.25620
H         -0.11120        2.52440       -4.94570
H          0.25870        0.79420       -4.75120
H         -2.03050        0.22900       -5.42510
H         -2.40040        1.95920       -5.61960
