58
PGF2a
C         -2.01670        1.06720        1.98190
C         -0.51670        1.06720        1.98190
C          0.17540        2.06150        1.40780
C          1.67540        2.06150        1.40780
O          2.13540        2.06150        2.70890
C          2.17540        0.83680        0.70070
C          3.67540        0.83680        0.70070
C          4.17540        2.06150       -0.00640
C          3.67540        2.06150       -1.42060
C          4.17540        0.83680       -2.12780
C         -2.54170        0.28140        3.18580
O         -3.81400        0.71390        3.50020
C         -2.59180       -1.18720        2.73280
C         -2.39490       -1.17990        1.20770
O         -1.12640       -1.62860        0.90120
C         -2.53820        0.28260        0.77950
C         -1.79400        0.59320       -0.48530
C         -2.34370       -0.23860       -1.60600
C         -1.56630       -0.62290       -2.62840
C         -0.11860       -0.23510       -2.68890
C          0.70870       -1.28270       -2.00460
C          0.51500       -2.60120       -2.69300
C          0.94190       -2.48440       -4.12630
O          1.85220       -3.19190       -4.58280
O          0.35500       -1.65720       -4.83960
H         -2.34310        2.10870        1.98190
H          2.03880        2.95150        0.89400
H         -1.92620        0.42600        4.07550
H         -3.09890       -1.83390        0.69000
H         -3.58990        0.52100        0.60650
H         -0.01230        0.23990        2.45950
H         -0.32900        2.88880        0.93010
H          2.70350        1.27660        2.95630
H          1.81210        0.83680       -0.32700
H          1.81210       -0.05320        1.21450
H          4.03880        0.83680        1.72830
H          4.03880       -0.05320        0.18680
H          3.81210        2.95150        0.50740
H          5.26540        2.06150       -0.00640
H          2.58540        2.06150       -1.42060
H          4.03870        2.95150       -1.93450
H          5.26540        0.83680       -2.12780
H          3.81210       -0.05320       -1.61390
H          3.81210        0.83680       -3.15540
H         -4.48230        0.63380        2.76060
H         -3.54690       -1.63980        3.00650
H         -1.81080       -1.77720        3.21630
H         -1.09430       -2.42420        0.29630
H         -0.73640        0.36670       -0.34960
H         -1.91130        1.64990       -0.72570
H         -3.38630       -0.51780       -1.56240
H         -1.96220       -1.22190       -3.43550
H          0.02210        0.72300       -2.18860
H          0.19160       -0.15020       -3.73030
H          1.76070       -1.00090       -2.04850
H          0.39850       -1.36760       -0.96310
H          1.11620       -3.36250       -2.19580
H         -0.53700       -2.88300       -2.64910
