58
PGF2a
C         -1.31350        1.50620        1.26160
C          0.18650        1.50620        1.26160
C          0.87870        0.51190        1.83570
C          2.37870        0.51190        1.83570
O          2.83870       -0.13860        0.70890
C          2.87870        1.92610        1.83570
C          4.37870        1.92610        1.83570
C          4.87870        1.21900        3.06040
C          4.37870        1.92610        4.28510
C          4.87870        1.21900        5.50990
C         -1.85200        0.75960        2.49330
O         -2.33270        1.61420        3.46440
C         -2.93370       -0.18510        1.96380
C         -2.45160       -0.54000        0.55850
O         -1.46350       -1.50080        0.62800
C         -1.87050        0.77350        0.02980
C         -0.83140        0.55140       -1.02900
C         -0.66780       -0.92040       -1.26800
C         -1.40690       -1.55880       -2.18630
C         -2.42450       -0.82460       -3.00820
C         -2.55900       -1.48810       -4.34680
C         -1.23520       -1.46430       -5.05190
C         -1.36980       -2.12780       -6.39050
O         -1.67730       -1.47640       -7.39980
O         -1.16350       -3.34880       -6.45480
H         -1.63080        2.55080        1.26160
H          2.74200       -0.00190        2.72560
H         -1.04910        0.17670        2.94960
H         -3.24760       -0.93550       -0.07500
H         -2.66610        1.36890       -0.42310
H          0.69100        2.33350        0.78390
H          0.37420       -0.31540        2.31330
H          3.40680        0.41740        0.10220
H          2.51530        2.44000        2.72560
H          2.51530        2.44000        0.94570
H          4.74200        1.41230        0.94570
H          4.74200        2.95380        1.83570
H          4.51530        0.19140        3.06040
H          5.96870        1.21900        3.06040
H          4.74200        2.95380        4.28510
H          3.28870        1.92610        4.28510
H          4.51530        0.19140        5.50990
H          5.96870        1.21900        5.50990
H          4.51530        1.73290        6.39990
H         -1.87970        1.54180        4.35290
H         -3.89190        0.33610        1.90870
H         -3.07550       -1.06270        2.59710
H         -1.65010       -2.33700        0.11230
H          0.11810        0.97390       -0.70050
H         -1.14480        1.03690       -1.95320
H          0.06510       -1.44910       -0.67600
H         -1.28900       -2.61880       -2.35840
H         -2.10420        0.20820       -3.14520
H         -3.38640       -0.84190       -2.49590
H         -2.87920       -2.52090       -4.20990
H         -3.29840       -0.95460       -4.94410
H         -0.91500       -0.43150       -5.18890
H         -0.49580       -1.99780       -4.45460
