58
PGF2a
C         -0.81170        1.34270        0.51200
C          0.68830        1.34270        0.51200
C          1.38040        1.91680       -0.48230
C          2.88040        1.91680       -0.48230
O          3.34040        2.56730       -1.60910
C          3.38040        2.62390        0.74240
C          2.88040        4.03810        0.74240
C          3.38040        4.74520        1.96710
C          2.88040        4.03810        3.19190
C          1.38040        4.03810        3.19190
C         -1.40370        0.62060        1.73370
O         -1.88070        1.53430        2.65130
C         -2.53300       -0.27850        1.20370
C         -2.77030        0.16520       -0.24180
O         -3.29420       -0.83920       -1.03000
C         -1.39280        0.62930       -0.71120
C         -0.54600       -0.55700       -1.06540
C         -1.16840       -1.28980       -2.21670
C         -0.59970       -2.39270       -2.72390
C          0.67990       -2.93420       -2.15860
C          0.45440       -4.33030       -1.65860
C         -0.59750       -4.31460       -0.58940
C         -0.82300       -5.71070       -0.08930
O         -1.93660       -6.24940       -0.17530
O          0.14030       -6.30860        0.41280
H         -1.13130        2.38700        0.51200
H          3.24370        0.88910       -0.48230
H         -0.64680        0.02270        2.24520
H         -3.47360        1.00040       -0.26670
H         -1.43980        1.27150       -1.59240
H          1.19270        0.86510        1.33930
H          0.87600        2.39440       -1.30960
H          3.05400        2.16240       -2.47740
H          4.47040        2.62390        0.74240
H          3.01710        2.11010        1.63240
H          3.24370        4.55190       -0.14760
H          1.79040        4.03810        0.74240
H          4.47040        4.74520        1.96710
H          3.01710        5.77290        1.96710
H          3.24370        3.01050        3.19190
H          3.24370        4.55190        4.08190
H          1.01710        5.06580        3.19190
H          1.01710        3.52430        2.30190
H          1.01710        3.52430        4.08190
H         -2.58820        2.15060        2.30550
H         -3.43860       -0.21710        1.81000
H         -2.20930       -1.32140        1.21740
H         -4.17410       -0.62710       -1.45530
H         -0.47620       -1.22340       -0.20560
H          0.45200       -0.22020       -1.34590
H         -2.09000       -0.89990       -2.62380
H         -1.04800       -2.92050       -3.55310
H          1.00920       -2.30170       -1.33420
H          1.44430       -2.94560       -2.93560
H          0.12510       -4.96270       -2.48300
H          1.38420       -4.72370       -1.24780
H         -0.26820       -3.68220        0.23500
H         -1.52730       -3.92120       -1.00020
