58
PGF2a
C         -1.43650        0.85640        1.41710
C          0.06350        0.85640        1.41710
C          0.75560        1.85070        0.84300
C          2.25560        1.85070        0.84300
O          2.71560        0.72390        0.19250
C          2.75560        3.07540        0.13590
C          2.25560        3.07540       -1.27830
C          2.75560        4.30020       -1.98540
C          2.25560        5.52490       -1.27830
C          0.75560        5.52490       -1.27830
C         -1.97510        0.10970        2.64880
O         -2.45580        0.96440        3.61990
C         -3.05670       -0.83500        2.11930
C         -2.57470       -1.18980        0.71410
O         -1.58660       -2.15070        0.78350
C         -1.99360        0.12370        0.18530
C         -0.95450       -0.09840       -0.87350
C         -1.56840       -0.82800       -2.03140
C         -0.83780       -1.65130       -2.79660
C          0.62020       -1.87300       -2.52280
C          1.00570       -3.25630       -2.95620
C          0.19530       -4.26290       -2.19470
C          0.45740       -4.10790       -0.72590
O         -0.46000       -3.83650        0.06290
O          1.62130       -4.25990       -0.32630
H         -1.75390        1.90100        1.41710
H          2.61900        1.85070        1.87070
H         -1.17220       -0.47320        3.10510
H         -3.37060       -1.58530        0.08050
H         -2.78920        0.71910       -0.26760
H          0.56790        0.02910        1.89470
H          0.25120        2.67800        0.36540
H          2.42930       -0.14440        0.59750
H          3.84560        3.07540        0.13590
H          2.39230        3.96540        0.64970
H          2.61890        2.18550       -1.79210
H          1.16560        3.07540       -1.27830
H          3.84560        4.30020       -1.98540
H          2.39230        4.30020       -3.01310
H          2.61900        5.52490       -0.25060
H          2.61890        6.41490       -1.79210
H          0.39230        5.52490       -2.30600
H          0.39230        4.63500       -0.76450
H          0.39230        6.41490       -0.76450
H         -3.20320        1.56020        3.32610
H         -4.01500       -0.31380        2.06420
H         -3.19850       -1.71250        2.75260
H         -0.79470       -1.90300        1.34170
H         -0.13770       -0.69160       -0.46220
H         -0.57000        0.86340       -1.21270
H         -2.61850       -0.66840       -2.22860
H         -1.28000       -2.17680       -3.63060
H          0.81070       -1.76030       -1.45550
H          1.20910       -1.14150       -3.07620
H          0.81520       -3.36900       -4.02350
H          2.06520       -3.41740       -2.75720
H         -0.86420       -4.10190       -2.39370
H          0.47540       -5.26810       -2.50960
