58
PGF2a
C         -2.83150        0.93280        0.42360
C         -1.33150        0.93280        0.42360
C         -0.63940        0.93280        1.57180
C          0.86060        0.93280        1.57180
O          1.32060        2.23390        1.57180
C          1.36060        0.22570        2.79650
C          2.86060        0.22570        2.79650
C          3.36060       -0.48140        1.57180
C          4.86060       -0.48140        1.57180
C          5.36060       -1.18850        2.79650
C         -3.37010        0.18620        1.65540
O         -3.85080        1.04080        2.62640
C         -4.45170       -0.75850        1.12590
C         -3.96970       -1.11340       -0.27940
O         -2.98160       -2.07420       -0.21000
C         -3.38860        0.20010       -0.80820
C         -2.34950       -0.02200       -1.86690
C         -1.22550       -0.83830       -1.30090
C         -0.16740       -1.17430       -2.05250
C         -0.06910       -0.74630       -3.48680
C          1.15890        0.09440       -3.67460
C          2.37350       -0.70550       -3.30710
C          3.60150        0.13520       -3.49490
O          4.60950       -0.03830       -2.79390
O          3.57580        1.00940       -4.37400
H         -3.14890        1.97740        0.42360
H          1.22390        0.41900        0.68180
H         -2.56720       -0.39670        2.11170
H         -4.76560       -1.50890       -0.91290
H         -4.18420        0.79550       -1.26110
H         -0.82710        0.93280       -0.53170
H         -1.14380        0.93280        2.52710
H          1.88870        2.48130        2.35670
H          0.99730       -0.80190        2.79650
H          0.99730        0.73960        3.68650
H          3.22390        1.25340        2.79650
H          3.22390       -0.28810        3.68650
H          2.99730       -1.50900        1.57180
H          2.99730        0.03250        0.68180
H          5.22390       -0.99520        0.68180
H          5.22390        0.54630        1.57180
H          4.99730       -0.67470        3.68650
H          4.99730       -2.21610        2.79650
H          6.45060       -1.18850        2.79650
H         -3.39780        0.96840        3.51500
H         -5.41000       -0.23740        1.07070
H         -4.59350       -1.63610        1.75920
H         -3.16820       -2.91040       -0.72570
H         -1.96500        0.93990       -2.20620
H         -2.79560       -0.55210       -2.70840
H         -1.29630       -1.14650       -0.26800
H          0.64210       -1.76220       -1.64490
H         -0.95160       -0.16510       -3.75380
H         -0.00740       -1.62740       -4.12550
H          1.23040        0.40540       -4.71680
H          1.09720        0.97550       -3.03590
H          2.30200       -1.01650       -2.26490
H          2.43520       -1.58660       -3.94580
