58
PGF2a
C         -1.30590        1.74350        1.53080
C          0.19410        1.74350        1.53080
C          0.88620        0.74920        2.10480
C          2.38620        0.74920        2.10480
O          2.84620        0.09860        3.23160
C          2.88620        0.04200        0.88010
C          4.38620        0.04200        0.88010
C          4.88620        1.45630        0.88010
C          6.38620        1.45630        0.88010
C          6.88620        2.87050        0.88010
C         -1.83090        0.95770        2.73470
O         -3.10310        1.39010        3.04910
C         -1.88100       -0.51090        2.28170
C         -1.68410       -0.50360        0.75660
O         -0.41560       -0.95240        0.45010
C         -1.82740        0.95890        0.32840
C         -1.08310        1.26950       -0.93640
C         -0.42560        0.02250       -1.44870
C         -1.06200       -0.79670       -2.29800
C         -2.45480       -0.49600       -2.76670
C         -2.46050       -0.35680       -4.26030
C         -1.98850       -1.63690       -4.88360
C         -2.90360       -2.75560       -4.48220
O         -2.48570       -3.91840       -4.37790
O         -4.09160       -2.47980       -4.25810
H         -1.63230        2.78500        1.53080
H          2.74960        1.77680        2.10480
H         -1.21540        1.10230        3.62440
H         -2.38810       -1.15760        0.23890
H         -2.87910        1.19730        0.15540
H          0.69850        2.57080        1.05310
H          0.38180       -0.07810        2.58250
H          3.41440       -0.70480        3.05340
H          2.52290        0.55590       -0.00990
H          2.52290       -0.98560        0.88010
H          4.74960       -0.47180        1.77010
H          4.74960       -0.47180       -0.00990
H          4.52290        1.97010       -0.00990
H          4.52290        1.97010        1.77010
H          6.74960        0.94240        1.77010
H          6.74960        0.94240       -0.00990
H          6.52290        3.38430       -0.00990
H          6.52290        3.38430        1.77010
H          7.97620        2.87050        0.88010
H         -3.77150        1.31010        2.30950
H         -2.83600       -0.96350        2.55540
H         -1.10000       -1.10090        2.76530
H         -0.38350       -1.74800       -0.15480
H         -0.32320        2.02440       -0.73470
H         -1.78010        1.64650       -1.68480
H          0.57750       -0.19410       -1.11110
H         -0.58840       -1.69480       -2.66690
H         -2.79770        0.43420       -2.31380
H         -3.11970       -1.30900       -2.47510
H         -3.47260       -0.13830       -4.60090
H         -1.79550        0.45610       -4.55190
H         -1.99270       -1.53570       -5.96890
H         -0.97640       -1.85540       -4.54290
