58
PGF2a
C         -1.71400       -0.53320        1.10660
C         -0.21400       -0.53320        1.10660
C          0.47810        0.46110        1.68070
C          1.97810        0.46110        1.68070
O          2.43810        1.11160        0.55390
C          2.47810        1.16820        2.90540
C          1.97810        0.46110        4.13020
C          2.47810        1.16820        5.35490
C          3.97810        1.16820        5.35490
C          4.47810        1.87530        6.57970
C         -2.23900       -1.31900        2.31060
O         -3.51120       -0.88660        2.62490
C         -2.28910       -2.78760        1.85750
C         -2.09220       -2.78030        0.33240
O         -0.82370       -3.22910        0.02600
C         -2.23550       -1.31780       -0.09570
C         -1.49130       -1.00720       -1.36050
C         -1.65270        0.44690       -1.69140
C         -1.63600        0.87360       -2.96220
C         -1.45530       -0.08760       -4.09950
C         -0.22240        0.27770       -4.87180
C         -0.36470        1.66990       -5.41170
C          0.86820        2.03520       -6.18400
O          0.95480        1.80290       -7.39890
O          1.79790        2.57710       -5.56800
H         -2.04040        0.50830        1.10660
H          2.34150       -0.56660        1.68070
H         -1.62350       -1.17450        3.20030
H         -2.79620       -3.43440       -0.18520
H         -3.28720       -1.07940       -0.26870
H          0.29040       -1.36050        0.62900
H         -0.02630        1.28840        2.15830
H          3.00620        1.91500        0.73210
H          2.11480        2.19580        2.90540
H          3.56810        1.16820        2.90540
H          0.88810        0.46110        4.13020
H          2.34150       -0.56660        4.13020
H          2.11480        2.19580        5.35490
H          2.11480        0.65440        6.24490
H          4.34150        0.14050        5.35490
H          4.34150        1.68200        4.46490
H          4.11480        2.90300        6.57970
H          4.11480        1.36150        7.46970
H          5.56810        1.87530        6.57970
H         -4.17960       -0.96660        1.88540
H         -3.24410       -3.24020        2.13130
H         -1.50810       -3.37760        2.34110
H         -0.79160       -4.02470       -0.57900
H         -1.89070       -1.61160       -2.17490
H         -0.43370       -1.23370       -1.22480
H         -1.78280        1.13920       -0.87230
H         -1.75220        1.92080       -3.20050
H         -2.32330       -0.03990       -4.75700
H         -1.35180       -1.09930       -3.70720
H          0.64570        0.22990       -4.21430
H         -0.09110       -0.42080       -5.69820
H         -1.23280        1.71760       -6.06920
H         -0.49610        2.36840       -4.58520
