58
PGF2a
C         -1.84490       -0.33320        2.17420
C         -0.34490       -0.33320        2.17420
C          0.34720        0.81500        2.17420
C          1.84720        0.81500        2.17420
O          2.30720       -0.31180        1.52360
C          2.34720        2.03970        1.46710
C          3.84720        2.03970        1.46710
C          4.34720        3.26440        0.76000
C          5.84720        3.26440        0.76000
C          6.34720        3.26440        2.17420
C         -2.36990       -1.11900        3.37810
O         -3.64220       -0.68650        3.69250
C         -2.42000       -2.58760        2.92510
C         -2.22320       -2.58020        1.40000
O         -0.95470       -3.02900        1.09360
C         -2.36640       -1.11770        0.97180
C         -1.62220       -0.80710       -0.29300
C         -2.58140       -0.28830       -1.32290
C         -2.36690       -0.48790       -2.63120
C         -1.15990       -1.23730       -3.11260
C         -0.75990       -0.72520       -4.46450
C         -0.43610        0.73640       -4.36980
C         -0.03600        1.24840       -5.72180
O          0.27780        2.43630       -5.88930
O         -0.02920        0.44520       -6.66640
H         -2.17130        0.70830        2.17420
H          2.21050        0.81500        3.20180
H         -1.75440       -0.97440        4.26790
H         -2.92710       -3.23430        0.88230
H         -3.41810       -0.87930        0.79880
H          0.15950       -1.28850        2.17420
H         -0.15720        1.77020        2.17420
H          2.87530       -0.13360        0.72020
H          1.98390        2.92970        1.98090
H          1.98390        2.03970        0.43940
H          4.21050        2.03970        2.49470
H          4.21050        1.14970        0.95320
H          3.98390        3.26440       -0.26770
H          3.98390        4.15440        1.27380
H          6.21050        2.37450        0.24610
H          6.21050        4.15440        0.24610
H          5.98390        4.15440        2.68800
H          5.98390        2.37450        2.68800
H          7.43720        3.26440        2.17420
H         -4.31050       -0.76660        2.95300
H         -3.37510       -3.04020        3.19890
H         -1.63900       -3.17760        3.40870
H         -0.92250       -3.82460        0.48860
H         -1.14440       -1.71330       -0.66530
H         -0.86220       -0.05220       -0.09130
H         -3.45060        0.25130       -0.97620
H         -3.05770       -0.11430       -3.37290
H         -1.39520       -2.29930       -3.18130
H         -0.33830       -1.09180       -2.41120
H          0.11720       -1.26970       -4.81430
H         -1.58150       -0.87070       -5.16590
H         -1.31310        1.28090       -4.02000
H          0.38550        0.88180       -3.66850
