55
Eicosatrienic_acid
C         -1.60310       -1.32940       -8.03390
C         -1.19910       -0.09170       -7.28900
C         -0.15670       -0.44030       -6.26830
C         -0.36660       -0.22230       -4.96230
C         -1.65160        0.37820       -4.47420
C         -1.52340        1.87220       -4.43800
C         -1.08120        2.50260       -3.34050
C         -0.69870        1.73670       -2.10880
C         -1.55750        2.17600       -0.96000
C         -1.86800        1.33210        0.03430
C         -1.36800       -0.08210        0.03430
C          0.13200       -0.08210        0.03430
C          0.63200        0.62500        1.25900
C          2.13200        0.62500        1.25900
C          2.63200        1.33210        2.48380
C          2.13200        0.62500        3.70850
C          2.63200       -0.78920        3.70850
C          2.13200       -1.49630        4.93330
C          0.63200       -1.49630        4.93330
C          0.13200       -2.20340        6.15800
O         -0.94850       -2.81180        6.14970
O          0.83430       -2.15980        7.17900
H         -2.36050       -1.07610       -8.77560
H         -0.73210       -1.75290       -8.53410
H         -2.01000       -2.05850       -7.33340
H         -0.79210        0.63750       -7.98950
H         -2.07000        0.33180       -6.78880
H          0.76880       -0.87280       -6.61980
H          0.38410       -0.47340       -4.22720
H         -2.46190        0.09930       -5.14770
H         -1.86830        0.00770       -3.47220
H         -1.79890        2.42380       -5.32510
H         -0.98890        3.57860       -3.31440
H          0.34840        1.92700       -1.87320
H         -0.84380        0.67070       -2.28400
H         -1.91760        3.19450       -0.96000
H         -2.48650        1.64850        0.86160
H         -1.73130       -0.59590       -0.85570
H         -1.73130       -0.59590        0.92430
H          0.49530       -1.10980        0.03430
H          0.49530        0.43170       -0.85570
H          0.26870        1.65270        1.25900
H          0.26870        0.11120        2.14900
H          2.49530       -0.40270        1.25900
H          2.49530        1.13880        0.36900
H          2.26870        2.35980        2.48380
H          3.72200        1.33210        2.48380
H          1.04200        0.62500        3.70850
H          2.49530        1.13880        4.59850
H          2.26870       -1.30310        2.81850
H          3.72200       -0.78920        3.70850
H          2.49530       -0.98250        5.82320
H          2.49530       -2.52400        4.93330
H          0.26870       -2.01020        4.04330
H          0.26870       -0.46870        4.93330
