55
Eicosatrienic_acid
C         -1.21780        0.49920       -4.87320
C         -2.61800       -0.01380       -5.03530
C         -3.00610       -0.80100       -3.81890
C         -3.59190       -0.20840       -2.76880
C         -3.88070        1.26360       -2.77200
C         -3.82440        1.78720       -1.36750
C         -2.95340        2.74550       -1.02050
C         -2.00350        3.32900       -2.02420
C         -1.15400        4.37220       -1.36100
C          0.01420        4.05110       -0.78690
C          0.51420        2.63690       -0.78690
C          2.01420        2.63690       -0.78690
C          2.51420        1.22270       -0.78690
C          2.01420        0.51560        0.43780
C          2.51420       -0.89860        0.43780
C          2.01420       -1.60570        1.66260
C          2.51420       -3.01990        1.66260
C          2.01420       -3.72700        2.88730
C          2.51420       -3.01990        4.11210
C          2.01420       -3.72700        5.33680
O          2.66790       -3.72220        6.39050
O          0.92590       -4.31650        5.26130
H         -0.93580        1.07130       -5.75710
H         -1.16540        1.14050       -3.99340
H         -0.53470       -0.34140       -4.75120
H         -3.30110        0.82680       -5.15720
H         -2.67040       -0.65510       -5.91510
H         -2.79810       -1.86110       -3.81660
H         -3.87140       -0.77530       -1.89270
H         -3.13810        1.77820       -3.38170
H         -4.87410        1.43800       -3.18520
H         -4.50840        1.36700       -0.64460
H         -2.91280        3.12270       -0.00900
H         -2.56870        3.78400       -2.83760
H         -1.36550        2.53990       -2.42210
H         -1.51410        5.39070       -1.36100
H          0.62600        4.80250       -0.30930
H          0.15080        2.12310       -1.67690
H          0.15080        2.12310        0.10310
H          2.37750        3.15080       -1.67690
H          2.37750        3.15080        0.10310
H          2.15080        0.70890       -1.67690
H          3.60420        1.22270       -0.78690
H          2.37750        1.02940        1.32780
H          0.92420        0.51560        0.43780
H          3.60420       -0.89860        0.43780
H          2.15080       -1.41240       -0.45210
H          0.92420       -1.60570        1.66260
H          2.37750       -1.09190        2.55260
H          2.15080       -3.53380        0.77260
H          3.60420       -3.01990        1.66260
H          2.37750       -4.75470        2.88730
H          0.92420       -3.72700        2.88730
H          2.15080       -1.99230        4.11210
H          3.60420       -3.01990        4.11210
