55
Eicosatrienic_acid
C         -0.59180       -0.48710       -4.08890
C         -1.84530       -0.46280       -3.26550
C         -2.98850        0.01800       -4.10930
C         -4.01680        0.68530       -3.56630
C         -4.06150        0.97540       -2.09530
C         -5.28300        0.34220       -1.49770
C         -5.18160       -0.57610       -0.52640
C         -3.84310       -1.00400       -0.00180
C         -3.45120       -0.12260        1.14700
C         -2.67930       -0.58380        2.14130
C         -2.17930       -1.99800        2.14130
C         -0.67930       -1.99800        2.14130
C         -0.17930       -1.29090        0.91650
C          1.32070       -1.29090        0.91650
C          1.82070       -0.58380       -0.30820
C          3.32070       -0.58380       -0.30820
C          3.82070        0.12330        0.91650
C          5.32070        0.12330        0.91650
C          5.82070        0.83050        2.14130
C          5.32070        2.24470        2.14130
O          5.10730        2.84820        3.20330
O          5.12770        2.79060        1.04480
H          0.23890       -0.83650       -3.47570
H         -0.72640       -1.16000       -4.93580
H         -0.37700        0.51740       -4.45350
H         -2.06020       -1.46730       -2.90090
H         -1.71070        0.21010       -2.41860
H         -2.95630       -0.19090       -5.16870
H         -4.84010        1.03150       -4.17400
H         -3.17040        0.56820       -1.61750
H         -4.09740        2.05350       -1.93850
H         -6.24700        0.65040       -1.87560
H         -6.06130       -1.03210       -0.09600
H         -3.09890       -0.92080       -0.79380
H         -3.89930       -2.03860        0.33680
H         -3.81130        0.89590        1.14700
H         -2.39710        0.05100        2.96860
H         -2.54260       -2.51180        1.25130
H         -2.54260       -2.51180        3.03130
H         -0.31600       -1.48410        3.03130
H         -0.31600       -3.02560        2.14130
H         -0.54260       -1.80470        0.02660
H         -0.54260       -0.26320        0.91650
H          1.68400       -0.77700        1.80650
H          1.68400       -2.31850        0.91650
H          1.45740        0.44390       -0.30820
H          1.45740       -1.09760       -1.19820
H          3.68400       -0.06990       -1.19820
H          3.68400       -1.61140       -0.30820
H          3.45740        1.15100        0.91650
H          3.45740       -0.39050        1.80650
H          5.68400        0.63720        0.02660
H          5.68400       -0.90430        0.91650
H          6.91070        0.83050        2.14130
H          5.45740        0.31660        3.03130
