55
Eicosatrienic_acid
C         -8.22400       -1.37390        3.47100
C         -6.85650       -1.11120        4.02870
C         -5.92820       -2.21530        3.61720
C         -4.83240       -1.96230        2.88750
C         -4.49470       -0.56600        2.45590
C         -5.12920       -0.28660        1.12580
C         -4.56590        0.56300        0.25500
C         -3.28060        1.26500        0.57920
C         -2.88880        2.14640       -0.56950
C         -2.11680        1.68530       -1.56390
C         -1.61680        0.27100       -1.56390
C         -0.11680        0.27100       -1.56390
C          0.38320        0.97810       -0.33910
C          1.88320        0.97810       -0.33910
C          2.38320        1.68530       -1.56390
C          3.88320        1.68530       -1.56390
C          4.38320        0.27100       -1.56390
C          5.88320        0.27100       -1.56390
C          6.38320       -1.14320       -1.56390
C          7.88320       -1.14320       -1.56390
O          8.52330       -1.67420       -2.48350
O          8.46220       -0.59490       -0.61420
H         -8.89850       -0.57160        3.76990
H         -8.17050       -1.41720        2.38310
H         -8.59650       -2.32370        3.85450
H         -6.48390       -0.16140        3.64510
H         -6.90990       -1.06790        5.11650
H         -6.17130       -3.22090        3.92810
H         -4.16380       -2.75740        2.59120
H         -4.87020        0.14320        3.19370
H         -3.41290       -0.46350        2.37110
H         -6.05490       -0.79220        0.89230
H         -5.02290        0.76420       -0.70300
H         -2.49770        0.52710        0.75450
H         -3.41420        1.87260        1.47420
H         -3.24890        3.16490       -0.56950
H         -1.83460        2.32000       -2.39120
H         -1.98020       -0.24280       -2.45380
H         -1.98020       -0.24280       -0.67390
H          0.24650       -0.75660       -1.56390
H          0.24650        0.78490       -2.45380
H          0.01980        2.00580       -0.33910
H          0.01980        0.46430        0.55090
H          2.24650        1.49200        0.55090
H          2.24650       -0.04950       -0.33910
H          2.01980        2.71290       -1.56390
H          2.01980        1.17140       -2.45380
H          4.24650        2.19910       -0.67390
H          4.24650        2.19910       -2.45380
H          4.01980       -0.24280       -0.67390
H          4.01980       -0.24280       -2.45380
H          6.24650        0.78490       -0.67390
H          6.24650        0.78490       -2.45380
H          6.01980       -1.65700       -2.45380
H          6.01980       -1.65700       -0.67390
