55
Eicosatrienic_acid
C         -5.77960        3.47120        2.19650
C         -4.57750        2.62420        2.49280
C         -4.61530        2.18700        3.92720
C         -4.64840        0.88720        4.25390
C         -4.64890       -0.17720        3.19700
C         -3.23540       -0.56080        2.87310
C         -2.89830       -0.99190        1.64930
C         -3.92240       -1.10640        0.55920
C         -3.53060       -0.22490       -0.58950
C         -2.75870       -0.68610       -1.58380
C         -2.25870       -2.10030       -1.58380
C         -0.75870       -2.10030       -1.58380
C         -0.25870       -1.39320       -2.80850
C          1.24130       -1.39320       -2.80850
C          1.74130       -0.68610       -1.58380
C          3.24130       -0.68610       -1.58380
C          3.74130        0.02100       -0.35910
C          5.24130        0.02100       -0.35910
C          5.74130        0.72810       -1.58380
C          7.24130        0.72810       -1.58380
O          7.88150        1.25910       -2.50350
O          7.82030        0.17980       -0.63420
H         -5.75210        3.78890        1.15420
H         -6.68530        2.89210        2.37610
H         -5.77470        4.34810        2.84390
H         -4.58240        1.74730        1.84540
H         -3.67180        3.20340        2.31330
H         -4.61500        2.95360        4.68840
H         -4.67560        0.57230        5.28690
H         -5.18810       -1.05130        3.56190
H         -5.13710        0.20230        2.29940
H         -2.49780       -0.47840        3.65810
H         -1.88040       -1.26820        1.41600
H         -4.89510       -0.79550        0.94050
H         -3.97870       -2.14090        0.22070
H         -3.89070        0.79360       -0.58950
H         -2.47650       -0.05130       -2.41110
H         -2.62200       -2.61420       -2.47380
H         -2.62200       -2.61420       -0.69380
H         -0.39530       -1.58650       -0.69380
H         -0.39530       -3.12800       -1.58380
H         -0.62200       -1.90710       -3.69850
H         -0.62200       -0.36560       -2.80850
H          1.60470       -2.42090       -2.80850
H          1.60470       -0.87940       -3.69850
H          1.37800       -1.20000       -0.69380
H          1.37800        0.34150       -1.58380
H          3.60470       -0.17230       -2.47380
H          3.60470       -1.71380       -1.58380
H          3.37800        1.04860       -0.35910
H          3.37800       -0.49290        0.53090
H          5.60470       -1.00670       -0.35910
H          5.60470        0.53480        0.53090
H          5.37800        1.75570       -1.58380
H          5.37800        0.21430       -2.47380
