49
gamma-Linolenic_acid
O         -1.70830        4.57560       -4.04120
C         -1.30100        3.41890       -4.22490
O         -0.24690        3.20150       -4.84070
C         -2.06760        2.23700       -3.70950
C         -1.20880        1.46180       -2.75470
C         -0.81700        2.34330       -1.60600
C          0.04180        1.56810       -0.65120
C          0.43360        2.44950        0.49750
C          1.20550        1.98830        1.49180
C          1.70550        0.57410        1.49180
C          3.20550        0.57410        1.49180
C          3.89770       -0.42020        0.91780
C          3.19730       -1.56900        0.25450
C          2.33850       -2.27830        1.25920
C          1.21140       -2.90250        0.88850
C          0.35270       -3.61180        1.89320
C         -1.01660       -2.99940        1.90160
C         -1.87540       -3.70880        2.90630
C         -3.24460       -3.09640        2.91480
C         -4.10340       -3.80580        3.91940
H         -2.35230        1.59650       -4.54430
H         -2.96390        2.58200       -3.19410
H         -0.31250        1.11680       -3.27020
H         -1.76580        0.60300       -2.38020
H         -0.26000        3.20210       -1.98050
H         -1.71330        2.68820       -1.09060
H         -0.51520        0.70920       -0.27670
H          0.93810        1.22310       -1.16670
H          0.07350        3.46800        0.49750
H          1.48770        2.62310        2.31910
H          1.34220        0.06030        2.38180
H          1.34220        0.06030        0.60180
H          3.71000        1.40140        1.96950
H          4.97790       -0.42020        0.91780
H          3.93640       -2.26280       -0.14600
H          2.57320       -1.19440       -0.55690
H          2.65780       -2.26980        2.29120
H          0.89220       -2.91090       -0.14350
H          0.27750       -4.66610        1.62700
H          0.79880       -3.51790        2.88330
H         -1.46270       -3.09330        0.91160
H         -0.94150       -1.94510        2.16780
H         -1.42920       -3.61490        3.89640
H         -1.95050       -4.76310        2.64010
H         -3.16950       -2.04210        3.18090
H         -3.69080       -3.19030        1.92470
H         -5.09840       -3.36080        3.92560
H         -4.17850       -4.86010        3.65330
H         -3.65730       -3.71190        4.90950
