49
gamma-Linolenic_acid
O         -0.22110        6.04480        1.69000
C          0.44970        5.17620        2.26730
O          1.68870        5.22560        2.27700
C         -0.21130        4.03170        2.97670
C         -0.39190        2.88900        2.02190
C         -1.25070        3.32830        0.87310
C         -1.43140        2.18560       -0.08160
C         -2.29010        2.62490       -1.23040
C         -2.60070        1.78100       -2.22470
C         -2.10070        0.36680       -2.22470
C         -0.60070        0.36680       -2.22470
C          0.09150       -0.62760       -1.65060
C         -0.60890       -1.77630       -0.98740
C          0.24060       -3.00800       -1.09280
C         -0.31280       -4.22780       -1.14790
C          0.53680       -5.45960       -1.25330
C          0.86970       -5.95650        0.12230
C          1.61980       -4.89420        0.86970
C          2.88660       -4.56660        0.13630
C          3.63670       -3.50420        0.88380
H         -1.18430        4.34960        3.35120
H          0.41280        3.71250        3.81140
H         -0.87220        2.05730        2.53730
H          0.58110        2.57120        1.64740
H         -2.22370        3.64620        1.24770
H         -0.77040        4.16000        0.35770
H         -0.45830        1.86770       -0.45620
H         -1.91170        1.35390        0.43380
H         -2.65020        3.64340       -1.23040
H         -3.21910        2.09730       -3.05200
H         -2.46400       -0.14710       -1.33470
H         -2.46400       -0.14710       -3.11470
H         -0.09620        1.19410       -2.70230
H          1.17170       -0.62760       -1.65060
H         -1.56560       -1.95160       -1.47950
H         -0.77860       -1.54070        0.06320
H          1.31290       -2.88010       -1.12270
H         -1.38500       -4.35570       -1.11800
H         -0.00830       -6.23150       -1.79650
H          1.45730       -5.22150       -1.78630
H          1.48710       -6.85160        0.04570
H         -0.05080       -6.19450        0.65520
H          1.86170       -5.25530        1.86930
H          1.00250       -3.99910        0.94630
H          3.50400       -5.46160        0.05970
H          2.64470       -4.20550       -0.86330
H          4.55730       -3.26620        0.35080
H          3.01940       -2.60920        0.96030
H          3.87860       -3.86530        1.88340
