49
gamma-Linolenic_acid
O         -6.63990        2.72760        0.07050
C         -5.90590        2.44150       -0.88710
O         -5.85030        1.28380       -1.32770
C         -5.05630        3.48480       -1.55040
C         -3.61190        3.09440       -1.44500
C         -3.22840        2.98230        0.00080
C         -1.78390        2.59190        0.10620
C         -0.93440        3.63520       -0.55700
C          0.23380        3.31410       -1.13110
C          0.73380        1.89990       -1.13110
C          2.23380        1.89990       -1.13110
C          2.92590        0.75170       -1.13110
C          2.22550       -0.57470       -1.13110
C          2.61730       -1.34700        0.09360
C          2.65350       -2.68710        0.08470
C          3.04530       -3.45940        1.30940
C          2.99780       -4.92860        1.01060
C          3.38960       -5.70090        2.23530
C          4.78140       -5.31850        2.64350
C          5.17320       -6.09080        3.86830
H         -5.21000        4.44520       -1.05820
H         -5.33500        3.56620       -2.60100
H         -2.99450        3.85250       -1.92690
H         -3.45820        2.13400       -1.93710
H         -3.38200        3.94270        0.49290
H         -3.84570        2.22420        0.48270
H         -1.50530        2.51050        1.15680
H         -1.63030        1.63160       -0.38600
H         -1.29440        4.65370       -0.55700
H          0.84570        4.06540       -1.60880
H          0.37050        1.38610       -0.24110
H          0.37050        1.38610       -2.02110
H          2.73820        2.85520       -1.13110
H          4.00620        0.75170       -1.13110
H          2.51020       -1.13590       -2.02110
H          1.14710       -0.41610       -1.13110
H          2.86950       -0.78820        0.98310
H          2.40140       -3.24590       -0.80480
H          4.05670       -3.18160        1.60610
H          2.35320       -3.23090        2.11990
H          3.68990       -5.15710        0.20010
H          1.98640       -5.20650        0.71390
H          3.35500       -6.76850        2.01810
H          2.69750       -5.47240        3.04580
H          5.47350       -5.54700        1.83310
H          4.81590       -4.25090        2.86070
H          6.18460       -5.81300        4.16500
H          4.48110       -5.86230        4.67880
H          5.13860       -7.15840        3.65110
