49
gamma-Linolenic_acid
O         -3.03730        1.20170       -3.97900
C         -3.45490        0.61560       -2.96920
O         -2.86180       -0.37230       -2.51110
C         -4.69420        1.07850       -2.26210
C         -4.35510        1.44600       -0.84790
C         -3.33800        2.54850       -0.84790
C         -2.99900        2.91600        0.56630
C         -1.98190        4.01850        0.56630
C         -0.66870        3.74870        0.56630
C         -0.16870        2.33450        0.56630
C          1.33130        2.33450        0.56630
C          2.02340        1.34010        1.14040
C          1.32300        0.19140        1.80360
C          2.34020       -0.76340        2.35490
C          2.80950       -1.77800        1.61490
C          3.82660       -2.73280        2.16610
C          4.68530       -3.24820        1.04950
C          3.82660       -3.95750        0.04480
C          3.12620       -5.10620        0.70800
C          2.26740       -5.81560       -0.29660
H         -5.43330        0.27740       -2.26210
H         -5.10190        1.94900       -2.77590
H         -3.94740        0.57550       -0.33410
H         -5.25560        1.78250       -0.33410
H         -2.43750        2.21210       -1.36170
H         -3.74580        3.41900       -1.36170
H         -3.89950        3.25240        1.08020
H         -2.59120        2.04550        1.08020
H         -2.34200        5.03700        0.56630
H          0.06380        4.54270        0.56630
H         -0.53200        1.82060        1.45630
H         -0.53200        1.82060       -0.32370
H          1.83570        3.16180        0.08870
H          3.10370        1.34010        1.14040
H          0.69900       -0.32400        1.07360
H          0.69900        0.56590        2.61500
H          2.68220       -0.60680        3.36750
H          2.46740       -1.93460        0.60220
H          4.45060       -2.21730        2.89620
H          3.31760       -3.56750        2.64810
H          5.42440       -3.94200        1.45010
H          5.19430       -2.41340        0.56750
H          4.45060       -4.33200       -0.76660
H          3.08750       -3.26370       -0.35580
H          3.86530       -5.80010        1.10860
H          2.50210       -4.73170        1.51950
H          1.75850       -6.65030        0.18530
H          1.52830       -5.12180       -0.69720
H          2.89140       -6.19010       -1.10810
