49
gamma-Linolenic_acid
O         -3.90340        1.20110       -2.97130
C         -2.79330        1.04800       -2.44030
O         -2.48800       -0.02150       -1.89200
C         -1.77620        2.15050       -2.44030
C         -0.91750        2.03850       -1.21550
C         -1.77620        2.15050        0.00920
C         -0.91750        2.03850        1.23400
C          0.09960        3.14100        1.23400
C          1.41280        2.87120        1.23400
C          1.91280        1.45700        1.23400
C          3.41280        1.45700        1.23400
C          4.10500        0.46270        0.65990
C          3.40450       -0.68610       -0.00330
C          2.54580       -1.39540        1.00130
C          1.22000       -1.49630        0.83020
C          0.36120       -2.20560        1.83490
C         -1.07000       -2.16310        1.38800
C         -1.19790       -2.83890        0.05500
C         -0.75330       -4.26660        0.17360
C         -0.88120       -4.94240       -1.15940
H         -2.28520        3.11440       -2.44030
H         -1.15220        2.06910       -3.33030
H         -0.17840        2.83970       -1.21550
H         -0.40850        1.07460       -1.21550
H         -2.28520        3.11440        0.00920
H         -2.51530        1.34930        0.00920
H         -1.54150        2.11990        2.12390
H         -0.40850        1.07460        1.23400
H         -0.26040        4.15950        1.23400
H          2.14530        3.66520        1.23400
H          1.54950        0.94310        2.12390
H          1.54950        0.94310        0.34400
H          3.91730        2.28430        1.71160
H          5.18520        0.46270        0.65990
H          4.14370       -1.37990       -0.40390
H          2.78050       -0.31160       -0.81480
H          3.03050       -1.82240        1.86730
H          0.73530       -1.06930       -0.03570
H          0.68430       -3.24300        1.92100
H          0.45410       -1.71450        2.80360
H         -1.39310       -1.12560        1.30190
H         -1.69410       -2.67850        2.11810
H         -0.57390       -2.32350       -0.67500
H         -2.23800       -2.80800       -0.26970
H          0.28670       -4.29750        0.49830
H         -1.37740       -4.78210        0.90360
H         -0.55820       -5.97990       -1.07330
H         -1.92130       -4.91160       -1.48410
H         -0.25720       -4.42700       -1.88950
