49
gamma-Linolenic_acid
O         -4.16640       -0.92310        2.89830
C         -4.12260       -0.09260        1.97860
O         -4.91820       -0.14640        1.02900
C         -3.10550        1.00990        1.97860
C         -3.66660        2.20790        1.27150
C         -2.64950        3.31040        1.27150
C         -1.41030        2.84740        0.56440
C         -0.39320        3.94990        0.56440
C          0.92000        3.68010        0.56440
C          1.42000        2.26590        0.56440
C          2.92000        2.26590        0.56440
C          3.61210        1.11770        0.56440
C          2.91170       -0.20870        0.56440
C          3.30350       -0.98100       -0.66030
C          2.80970       -2.20530       -0.89400
C          3.20150       -2.97760       -2.11870
C          2.24910       -2.66310       -3.23410
C          0.85730       -3.04550       -2.82580
C          0.80970       -4.51470       -2.52700
C         -0.58210       -4.89710       -2.11870
H         -2.20500        0.67350        1.46480
H         -2.85910        1.27700        3.00630
H         -4.56710        2.54430        1.78540
H         -3.91300        1.94080        0.24390
H         -3.05730        4.18090        0.75770
H         -2.40320        3.57740        2.29920
H         -1.00250        1.97690        1.07830
H         -1.65670        2.58040       -0.46320
H         -0.75330        4.96840        0.56440
H          1.65250        4.47410        0.56440
H          1.05670        1.75200        1.45440
H          1.05670        1.75200       -0.32560
H          3.42440        3.22120        0.56440
H          4.69240        1.11770        0.56440
H          1.83330       -0.05010        0.56440
H          3.19640       -0.76990        1.45440
H          3.99660       -0.51860       -1.34790
H          2.11660       -2.66760       -0.20640
H          4.21290       -2.69970       -2.41540
H          3.16690       -4.04520       -1.90160
H          2.53380       -3.22440       -4.12410
H          2.28360       -1.59560       -3.45130
H          0.16520       -2.81710       -3.63630
H          0.57250       -2.48430       -1.93590
H          1.09440       -5.07590       -3.41700
H          1.50180       -4.74320       -1.71650
H         -0.61670       -5.96470       -1.90160
H         -0.86680       -4.33590       -1.22880
H         -1.27420       -4.66860       -2.92920
