49
gamma-Linolenic_acid
O         -1.44880        2.83610       -6.12450
C         -0.95480        1.71000       -6.28440
O          0.27320        1.55410       -6.35690
C         -1.82330        0.49210       -6.39640
C         -1.48420       -0.46680       -5.29390
C         -1.71770        0.19350       -3.96740
C         -1.37860       -0.76540       -2.86490
C         -1.61210       -0.10510       -1.53850
C         -1.38140       -0.75760       -0.39040
C         -0.88140       -2.17180       -0.39040
C          0.61860       -2.17180       -0.39040
C          1.31070       -1.59770        0.60400
C          0.61030       -0.93450        1.75270
C          1.62740       -0.38330        2.70750
C          1.36590        0.70530        3.44490
C          2.38300        1.25660        4.39970
C          2.20230        0.61940        5.74550
C          0.82390        0.91510        6.25770
C          0.64320        0.27800        7.60360
C          0.82390       -1.20620        7.48250
H         -1.65360        0.01230       -7.36020
H         -2.87030        0.78380       -6.31500
H         -0.43710       -0.75850       -5.37520
H         -2.11530       -1.35180       -5.37520
H         -1.08660        1.07850       -3.88610
H         -2.76480        0.48520       -3.88610
H         -2.00970       -1.65040       -2.94630
H         -0.33160       -1.05710       -2.94630
H         -1.97220        0.91340       -1.53850
H         -1.54950       -0.28200        0.56490
H         -1.24470       -2.68560        0.49960
H         -1.24470       -2.68560       -1.28030
H          1.12300       -2.64950       -1.21770
H          2.39100       -1.59770        0.60400
H         -0.01370       -1.66460        2.26810
H         -0.01370       -0.12310        1.37820
H          2.57750       -0.89200        2.78160
H          0.41580        1.21410        3.37080
H          3.38470        1.04170        4.02750
H          2.25170        2.33510        4.48770
H          2.94140        1.02000        6.43930
H          2.33360       -0.45910        5.65750
H          0.08480        0.51460        5.56390
H          0.69260        1.99360        6.34580
H          1.38230        0.67850        8.29740
H         -0.35850        0.49280        7.97580
H          0.69260       -1.66920        8.46050
H          0.08480       -1.60680        6.78870
H          1.82560       -1.42110        7.11030
