49
gamma-Linolenic_acid
O         -0.49160        1.12660       -4.11080
C         -0.49320        2.30570       -3.72700
O          0.21510        3.16000       -4.28020
C         -1.35190        2.74500       -2.57820
C         -0.58540        2.60040       -1.29700
C         -1.44420        3.03970       -0.14830
C         -0.67760        2.89510        1.13290
C         -1.53640        3.33430        2.28170
C         -1.84690        2.49050        3.27600
C         -1.34690        1.07620        3.27600
C          0.15310        1.07620        3.27600
C          0.84520       -0.07190        3.27600
C          0.14480       -1.39830        3.27600
C          0.53660       -2.17070        2.05120
C          0.29330       -1.69100        0.82330
C          0.68510       -2.46330       -0.40150
C          0.63750       -3.93250       -0.10260
C          1.02940       -4.70480       -1.32740
C          2.42120       -4.32240       -1.73560
C          2.81300       -5.09470       -2.96040
H         -2.24830        2.12610       -2.53720
H         -1.63670        3.78810       -2.71550
H          0.31090        3.21930       -1.33800
H         -0.30070        1.55720       -1.15970
H         -1.72890        4.08280       -0.28560
H         -2.34050        2.42080       -0.10720
H         -0.39290        1.85190        1.27030
H          0.21870        3.51400        1.09190
H         -1.89650        4.35280        2.28170
H         -2.46540        2.80680        4.10330
H         -1.71030        0.56240        4.16600
H         -1.71030        0.56240        2.38600
H          0.65750        2.03150        3.27600
H          1.92550       -0.07190        3.27600
H         -0.93360       -1.23980        3.27600
H          0.42950       -1.95960        4.16600
H          1.02130       -3.12600        2.19090
H         -0.19140       -0.73570        0.68360
H         -0.00700       -2.23480       -1.21200
H          1.69650       -2.18540       -0.69820
H         -0.37380       -4.21040        0.19400
H          1.32960       -4.16100        0.70790
H          0.33730       -4.47630       -2.13790
H          0.99480       -5.77240       -1.11020
H          2.45570       -3.25480       -1.95280
H          3.11330       -4.55090       -0.92510
H          3.82440       -4.81680       -3.25700
H          2.77840       -6.16230       -2.74320
H          2.12090       -4.86620       -3.77090
