49
gamma-Linolenic_acid
O         -6.40940       -1.04090        4.21820
C         -5.29940       -1.19400        3.68720
O         -4.99400       -2.26350        3.13900
C         -4.28230       -0.09150        3.68720
C         -3.42350       -0.20350        2.46250
C         -2.40640        0.89900        2.46250
C         -1.54760        0.78700        1.23770
C         -0.53050        1.88950        1.23770
C          0.78270        1.61970        1.23770
C          1.28270        0.20550        1.23770
C          2.78270        0.20550        1.23770
C          3.47480       -0.78880        0.66370
C          2.77440       -1.93760        0.00040
C          2.54090       -1.61340       -1.44540
C          3.37860       -0.81230       -2.11910
C          3.14510       -0.48810       -3.56490
C          1.81670        0.19190       -3.71660
C          1.58320        0.51610       -5.16250
C          2.66990        1.42660       -5.65250
C          2.66160        2.69290       -4.84850
H         -3.65820       -0.17290        4.57720
H         -4.79120        0.87240        3.68720
H         -4.04750       -0.12210        1.57250
H         -2.91450       -1.16740        2.46250
H         -2.91530        1.86290        2.46250
H         -1.78240        0.81760        3.35250
H         -1.03870       -0.17690        1.23770
H         -2.17170        0.86840        0.34780
H         -0.89060        2.90800        1.23770
H          1.51520        2.41370        1.23770
H          0.91930       -0.30840        2.12770
H          0.91930       -0.30840        0.34780
H          3.28710        1.03280        1.71540
H          4.55510       -0.78880        0.66370
H          1.81770       -2.11280        0.49260
H          3.39170       -2.83260        0.07700
H          1.67580       -2.04640       -1.92610
H          4.24370       -0.37920       -1.63830
H          3.93470        0.17360       -3.92100
H          3.15110       -1.40830       -4.14910
H          1.81070        1.11200       -3.13240
H          1.02710       -0.46980       -3.36060
H          0.61790        1.01010       -5.27270
H          1.58930       -0.40410       -5.74670
H          3.63520        0.93250       -5.54220
H          2.50020        1.66220       -6.70310
H          3.45120        3.35450       -5.20460
H          1.69630        3.18700       -4.95880
H          2.83120        2.45730       -3.79780
