49
gamma-Linolenic_acid
O         -4.11940        2.71750        6.06940
C         -3.22910        3.36050        5.49360
O         -3.50110        4.35620        4.80650
C         -1.78820        2.95910        5.60560
C         -1.44910        2.00010        4.50310
C         -1.68260        2.66050        3.17660
C         -1.34360        1.70150        2.07420
C         -1.57700        2.36190        0.74770
C         -1.34630        1.70940       -0.40040
C         -0.84630        0.29510       -0.40040
C          0.65370        0.29510       -0.40040
C          1.34580        0.29510       -1.54860
C          0.64540        0.29510       -2.87500
C          1.03720       -0.92960       -3.64730
C          0.79380       -2.15760       -3.16770
C          1.18570       -3.38230       -3.94000
C          2.57750       -3.79060       -3.55760
C          2.96930       -5.01530       -4.32990
C          4.36110       -5.42360       -3.94750
C          5.31350       -4.30820       -4.26190
H         -1.61850        2.47920        6.56950
H         -1.15710        3.84410        5.52420
H         -2.08020        1.11510        4.58450
H         -0.40210        1.70850        4.58450
H         -2.72970        2.95220        3.09530
H         -1.05150        3.54550        3.09530
H         -0.29650        1.40990        2.15550
H         -1.97470        0.81650        2.15550
H         -1.93710        3.38040        0.74770
H         -1.51450        2.18490       -1.35570
H         -1.20970       -0.21870        0.48960
H         -1.20970       -0.21870       -1.29040
H          1.15810        0.29510        0.55490
H          2.42610        0.29510       -1.54860
H          0.93010        1.18510       -3.43620
H         -0.43300        0.29510       -2.71640
H          1.52190       -0.78990       -4.60260
H          0.30920       -2.29730       -2.21240
H          0.49360       -4.19280       -3.71150
H          1.15110       -3.16520       -5.00760
H          2.61200       -4.00780       -2.49000
H          3.26960       -2.98010       -3.78610
H          2.93470       -4.79820       -5.39750
H          2.27720       -5.82580       -4.10140
H          4.39560       -5.64080       -2.87990
H          4.64580       -6.31360       -4.50870
H          6.32490       -4.60490       -3.98400
H          5.27900       -4.09110       -5.32950
H          5.02880       -3.41820       -3.70070
