49
gamma-Linolenic_acid
O         -6.84190        0.09160        0.30400
C         -5.76140       -0.20540       -0.22700
O         -5.34800       -1.37450       -0.22700
C         -4.91180        0.83780       -0.89020
C         -3.46730        0.44740       -0.78480
C         -2.61780        1.49070       -1.44800
C         -1.17330        1.10030       -1.34270
C         -0.32370        2.14350       -2.00590
C          0.84440        1.82240       -2.58000
C          1.34440        0.40820       -2.58000
C          2.84440        0.40820       -2.58000
C          3.53650       -0.58610       -2.00590
C          2.83610       -1.73480       -1.34270
C          1.97740       -1.21940       -0.22600
C          2.51070       -0.54520        0.80270
C          1.65200       -0.02980        1.91930
C          1.54860       -1.07250        2.99270
C          2.91790       -1.38600        3.51880
C          3.53180       -0.14140        4.08820
C          4.90110       -0.45490        4.61430
H         -5.06540        1.79820       -0.39800
H         -5.19050        0.91920       -1.94080
H         -3.31370       -0.51290       -1.27690
H         -3.18870        0.36600        0.26580
H         -2.89640        1.57210       -2.49870
H         -2.77140        2.45100       -0.95590
H         -0.89460        1.01890       -0.29200
H         -1.01970        0.13990       -1.83480
H         -0.68380        3.16200       -2.00590
H          1.45630        2.57380       -3.05760
H          0.98110       -0.10560       -1.69000
H          0.98110       -0.10560       -3.46990
H          3.34880        1.23550       -3.05760
H          4.61680       -0.58610       -2.00590
H          3.57520       -2.42860       -0.94210
H          2.21210       -2.25030       -2.07270
H          0.91510       -1.40920       -0.27770
H          3.57290       -0.35540        0.85440
H          2.09810        0.87460        2.33310
H          0.65700        0.19800        1.53700
H          1.10240       -1.97690        2.57900
H          0.92450       -0.69800        3.80410
H          3.54190       -1.76050        2.70740
H          2.84270       -2.14370        4.29880
H          3.60690        0.61620        3.30820
H          2.90770        0.23310        4.89960
H          5.34720        0.44950        5.02800
H          4.82590       -1.21260        5.39420
H          5.52510       -0.82950        3.80280
