49
gamma-Linolenic_acid
O         -5.59070       -0.08380        2.38340
C         -5.54690        0.74680        1.46370
O         -6.34240        0.69300        0.51410
C         -4.52980        1.84930        1.46370
C         -3.67100        1.73730        0.23890
C         -2.65390        2.83980        0.23890
C         -1.79510        2.72780        1.46370
C         -0.77800        3.83030        1.46370
C          0.53520        3.56050        1.46370
C          1.03520        2.14630        1.46370
C          2.53520        2.14630        1.46370
C          3.22730        1.15190        0.88960
C          2.52690        0.00320        0.22640
C          3.54400       -0.95160       -0.32490
C          3.16940       -2.06630       -0.96850
C          4.18650       -3.02110       -1.51970
C          4.00580       -3.14230       -3.00390
C          2.62740       -3.65450       -3.29960
C          2.44670       -5.00030       -2.66240
C          1.06820       -5.51250       -2.95810
H         -3.90570        1.76790        2.35370
H         -5.03870        2.81310        1.46370
H         -4.29500        1.81870       -0.65100
H         -3.16200        0.77340        0.23890
H         -2.02990        2.75840       -0.65100
H         -3.16280        3.80370        0.23890
H         -2.41920        2.80920        2.35370
H         -1.28620        1.76390        1.46370
H         -1.13810        4.84880        1.46370
H          1.26770        4.35450        1.46370
H          0.67180        1.63240        2.35370
H          0.67180        1.63240        0.57370
H          3.03960        2.97360        1.94130
H          4.30760        1.15190        0.88960
H          1.90290        0.37770       -0.58500
H          1.90290       -0.51220        0.95640
H          4.58820       -0.71170       -0.18640
H          2.12530       -2.30620       -1.10700
H          5.18820       -2.64890       -1.30480
H          4.05520       -3.99910       -1.05670
H          4.74500       -3.83610       -3.40440
H          4.13710       -2.16430       -3.46690
H          2.49610       -3.74250       -4.37810
H          1.88830       -2.96060       -2.89900
H          3.18580       -5.69410       -3.06300
H          2.57800       -4.91230       -1.58390
H          0.93690       -6.49050       -2.49510
H          0.32910       -4.81870       -2.55760
H          0.93690       -5.60050       -4.03660
