49
gamma-Linolenic_acid
O         -3.76910       -0.38160        0.14890
C         -3.63640       -0.77310       -1.02020
O         -2.85630       -1.69490       -1.30190
C         -4.41420       -0.14700       -2.13950
C         -3.46430        0.43640       -3.14320
C         -2.61480        1.47970       -2.48000
C         -1.66490        2.06310       -3.48370
C         -0.81540        3.10640       -2.82040
C          0.35280        2.78530       -2.24640
C          0.85280        1.37110       -2.24640
C          2.35280        1.37110       -2.24640
C          3.04490        0.37680       -1.67230
C          2.34450       -0.77200       -1.00910
C          2.73630       -0.82840        0.43770
C          2.03790       -0.16540        1.37030
C          2.42970       -0.22180        2.81720
C          1.72930       -1.37060        3.48040
C          2.12110       -1.42710        4.92720
C          1.42070       -2.57580        5.59040
C          1.81250       -2.63230        7.03720
H         -5.05230        0.64210       -1.74170
H         -5.03150       -0.90510       -2.62150
H         -4.02950        0.89140       -3.95660
H         -2.82630       -0.35270       -3.54110
H         -3.25280        2.26880       -2.08210
H         -2.04960        1.02470       -1.66660
H         -1.02680        1.27410       -3.88150
H         -2.23010        2.51810       -4.29710
H         -1.17540        4.12490       -2.82040
H          0.96470        3.53670       -1.76870
H          0.48950        0.85730       -1.35640
H          0.48950        0.85730       -3.13640
H          2.85720        2.19840       -2.72400
H          4.12520        0.37680       -1.67230
H          2.62930       -1.70300       -1.49920
H          1.26610       -0.63460       -1.08840
H          3.59970       -1.42080        0.70380
H          1.17450        0.42700        1.10430
H          3.50810       -0.35920        2.89640
H          2.14500        0.70920        3.30730
H          2.01400       -2.30160        2.99020
H          0.65090       -1.23330        3.40110
H          1.83640       -0.49600        5.41730
H          3.19950       -1.56440        5.00650
H          0.34230       -2.43850        5.51110
H          1.70540       -3.50680        5.10030
H          1.30360       -3.46700        7.51920
H          2.89090       -2.76960        7.11650
H          1.52780       -1.70120        7.52740
