49
gamma-Linolenic_acid
O          0.90380        2.35380       -4.54810
C          0.40500        1.27680       -4.90720
O          0.95250        0.19690       -4.63950
C         -0.88030        1.23800       -5.67950
C         -1.90440        0.46030       -4.90720
C         -2.13780        1.12070       -3.58070
C         -3.16190        0.34300       -2.80840
C         -3.39540        1.00340       -1.48200
C         -3.16470        0.35080       -0.33380
C         -2.66470       -1.06340       -0.33380
C         -1.16470       -1.06340       -0.33380
C         -0.47260       -1.06340        0.81430
C         -1.17300       -1.06340        2.14070
C         -0.15590       -1.06340        3.24320
C          0.31340        0.08480        3.75190
C          1.33050        0.08480        4.85440
C          2.56980       -0.62230        4.39150
C          3.58690       -0.62230        5.49390
C          4.82610       -1.32940        5.03100
C          5.38720       -0.62230        3.83300
H         -0.71060        0.75810       -6.64340
H         -1.23970        2.25470       -5.83800
H         -1.54490       -0.55640       -4.74860
H         -2.83840        0.43210       -5.46840
H         -1.20390        1.14890       -3.01950
H         -2.49730        2.13740       -3.73930
H         -4.09590        0.31480       -3.36960
H         -2.80250       -0.67370       -2.64990
H         -3.75550        2.02190       -1.48200
H         -3.33280        0.82640        0.62150
H         -3.02800       -1.57720        0.55610
H         -3.02800       -1.57720       -1.22380
H         -0.66030       -1.06340       -1.28910
H          0.60770       -1.06340        0.81430
H         -1.79700       -1.95340        2.22210
H         -1.79700       -0.17340        2.22210
H          0.18620       -2.01870        3.61400
H         -0.02860        1.04010        3.38120
H          1.57690        1.11240        5.12150
H          0.92280       -0.42910        5.72500
H          2.97750       -0.10850        3.52090
H          2.32340       -1.65000        4.12440
H          3.17910       -1.13620        6.36450
H          3.83320        0.40530        5.76100
H          5.56520       -1.32940        5.83210
H          4.57970       -2.35710        4.76390
H          6.28770       -1.13620        3.49660
H          4.64810       -0.62230        3.03190
H          5.63360        0.40530        4.10010
