49
gamma-Linolenic_acid
O         -5.51920        0.65650        0.43910
C         -4.40910        0.50340       -0.09180
O         -4.10370       -0.56610       -0.64010
C         -3.39200        1.60590       -0.09180
C         -2.15280        1.14290       -0.79890
C         -1.13570        2.24540       -0.79890
C         -0.79660        2.61290        0.61530
C          0.22050        3.71540        0.61530
C          1.53370        3.44560        0.61530
C          2.03370        2.03140        0.61530
C          3.53370        2.03140        0.61530
C          4.22580        1.03710        1.18930
C          3.52540       -0.11170        1.85260
C          2.66660       -0.82100        0.84790
C          2.86370       -2.11540        0.56000
C          2.00500       -2.82480       -0.44470
C          0.81860       -3.42690        0.24800
C         -0.04020       -4.13620       -0.75670
C         -0.50930       -3.15820       -1.79270
C         -1.36810       -3.86760       -2.79740
H         -3.14560        1.87290        0.93580
H         -3.79980        2.47640       -0.60570
H         -2.39910        0.87590       -1.82660
H         -1.74500        0.27240       -0.28510
H         -0.23520        1.90900       -1.31280
H         -1.54340        3.11590       -1.31280
H         -1.69710        2.94930        1.12910
H         -0.38890        1.74240        1.12910
H         -0.13960        4.73390        0.61530
H          2.26620        4.23960        0.61530
H          1.67030        1.51750        1.50520
H          1.67030        1.51750       -0.27470
H          4.03810        2.85870        0.13760
H          5.30610        1.03710        1.18930
H          2.90140        0.26280        2.66400
H          4.26450       -0.80550        2.25310
H          1.88420       -0.25490        0.36390
H          3.64620       -2.68160        1.04400
H          1.66410       -2.11410       -1.19760
H          2.58400       -3.61340       -0.92530
H          0.23960       -2.63830        0.72860
H          1.15940       -4.13760        1.00090
H         -0.90230       -4.57380       -0.25330
H          0.53880       -4.92480       -1.23720
H         -1.08830       -2.36960       -1.31220
H          0.35280       -2.72070       -2.29610
H         -1.70890       -3.15690       -3.55030
H         -0.78910       -4.65620       -3.27800
H         -2.23020       -4.30510       -2.29400
