49
gamma-Linolenic_acid
O         -5.44260       -0.14410       -2.04610
C         -4.33250       -0.29720       -1.51510
O         -4.02720       -1.36670       -0.96690
C         -3.31540        0.80530       -1.51510
C         -2.97640        1.17280       -0.10090
C         -1.95930        2.27530       -0.10090
C         -1.62020        2.64280        1.31330
C         -0.60310        3.74530        1.31330
C          0.71010        3.47540        1.31330
C          1.21010        2.06120        1.31330
C          2.71010        2.06120        1.31330
C          3.40220        1.06690        1.88740
C          2.70180       -0.08180        2.55060
C          3.09360       -1.36300        1.87610
C          2.39510       -1.83920        0.83550
C          2.78690       -3.12040        0.16100
C          3.09570       -2.85160       -1.28200
C          1.88210       -2.28290       -1.95550
C          0.75150       -3.26400       -1.86040
C         -0.46220       -2.69530       -2.53390
H         -3.72320        1.67580       -2.02900
H         -2.41490        0.46890       -2.02900
H         -2.56860        0.30230        0.41290
H         -3.87690        1.50920        0.41290
H         -1.05880        1.93890       -0.61480
H         -2.36700        3.14580       -0.61480
H         -2.52070        2.97920        1.82710
H         -1.21250        1.77230        1.82710
H         -0.96320        4.76380        1.31330
H          1.44260        4.26940        1.31330
H          0.84670        1.54740        2.20330
H          0.84670        1.54740        0.42330
H          3.21450        2.88850        0.83560
H          4.48250        1.06690        1.88740
H          1.62340        0.05550        2.47130
H          2.98650       -0.12290        3.60190
H          3.95690       -1.88960        2.25600
H          1.53180       -1.31260        0.45560
H          3.66880       -3.53370        0.65040
H          1.96540       -3.83340        0.23010
H          3.38040       -3.78270       -1.77220
H          3.91730       -2.13860       -1.35110
H          2.10640       -2.08760       -3.00410
H          1.59730       -1.35180       -1.46540
H          1.03620       -4.19510       -2.35050
H          0.52710       -3.45930       -0.81180
H         -1.28370       -3.40830       -2.46480
H         -0.74690       -1.76420       -2.04380
H         -0.23780       -2.50000       -3.58250
