49
gamma-Linolenic_acid
O         -4.87020        0.54670       -0.65880
C         -4.57130       -0.01940       -1.72080
O         -4.84160        0.49260       -2.81730
C         -3.87090       -1.34580       -1.72080
C         -3.01210       -1.45780       -2.94560
C         -1.99500       -0.35530       -2.94560
C         -1.13630       -0.46730       -1.72080
C         -0.11910        0.63520       -1.72080
C          1.19400        0.36540       -1.72080
C          1.69400       -1.04880       -1.72080
C          3.19400       -1.04880       -1.72080
C          3.88620       -1.62290       -0.72650
C          3.18580       -2.28610        0.42220
C          2.95230       -1.28240        1.51220
C          1.89920       -1.38680        2.33530
C          1.66570       -0.38320        3.42530
C          1.50180        0.98060        2.82250
C          1.26830        1.98430        3.91250
C          1.10440        3.34800        3.30980
C          0.87090        4.35170        4.39980
H         -4.61000       -2.14700       -1.72080
H         -3.24680       -1.42720       -0.83080
H         -3.63620       -1.37640       -3.83550
H         -2.50320       -2.42170       -2.94560
H         -1.37100       -0.43670       -3.83550
H         -2.50400        0.60860       -2.94560
H         -1.76030       -0.38590       -0.83080
H         -0.62730       -1.43110       -1.72080
H         -0.47920        1.65370       -1.72080
H          1.92660        1.15940       -1.72080
H          1.33070       -1.56260       -0.83080
H          1.33070       -1.56260       -2.61080
H          3.69850       -0.57120       -2.54810
H          4.96640       -1.62290       -0.72650
H          3.80310       -3.09950        0.80350
H          2.22910       -2.68400        0.08370
H          3.66040       -0.47270        1.61250
H          1.19110       -2.19650        2.23500
H          0.76300       -0.64800        3.97580
H          2.51790       -0.38000        4.10490
H          0.64960        0.97740        2.14290
H          2.40450        1.24540        2.27200
H          2.12050        1.98740        4.59210
H          0.36560        1.71940        4.46300
H          2.00710        3.61280        2.75930
H          0.25220        3.34480        2.63020
H          0.75180        5.34270        3.96180
H         -0.03180        4.08680        4.95030
H          1.72310        4.35490        5.07940
