49
gamma-Linolenic_acid
O         -5.87920       -0.58570        1.53340
C         -5.43890        0.39180        2.15660
O         -5.30130        1.49370        1.60480
C         -5.05540        0.27980        3.60240
C         -3.61100       -0.11060        3.70770
C         -2.76140        0.93260        3.04450
C         -1.31690        0.54220        3.14990
C         -0.46740        1.58550        2.48670
C          0.70080        1.26440        1.91260
C          1.20080       -0.14990        1.91260
C          2.70080       -0.14990        1.91260
C          3.39290       -0.72390        0.91830
C          2.69250       -1.38710       -0.23040
C          2.45900       -0.38350       -1.32050
C          3.36660       -0.18840       -2.28770
C          3.13310        0.81530       -3.37770
C          3.82710        0.36500       -4.62900
C          3.28230       -0.96730       -5.05110
C          1.81020       -0.84570       -5.31180
C          1.26540       -2.17810       -5.73390
H         -5.67280       -0.47830        4.08430
H         -5.20910        1.24010        4.09450
H         -3.45730       -1.07100        3.21560
H         -3.33230       -0.19210        4.75840
H         -3.04010        1.01400        1.99390
H         -2.91500        1.89300        3.53670
H         -1.03830        0.46080        4.20050
H         -1.16330       -0.41820        2.65780
H         -0.82750        2.60400        2.48670
H          1.31260        2.01570        1.43500
H          0.83750       -0.66370        2.80260
H          0.83750       -0.66370        1.02260
H          3.20520        0.32780        2.73990
H          4.47320       -0.72390        0.91830
H          1.73590       -1.78500        0.10810
H          3.30990       -2.20060       -0.61170
H          1.53580        0.17710       -1.30070
H          4.28990       -0.74900       -2.30740
H          2.06340        0.90360       -3.56720
H          3.52900        1.78340       -3.07100
H          4.89680        0.27660       -4.43950
H          3.65740        1.09430       -5.42110
H          3.45200       -1.69670       -4.25900
H          3.78660       -1.29450       -5.96030
H          1.30590       -0.51850       -4.40260
H          1.64050       -0.11640       -6.10390
H          0.19560       -2.08970       -5.92340
H          1.76970       -2.50530       -6.64320
H          1.43510       -2.90740       -4.94180
