49
gamma-Linolenic_acid
O         -3.68150        2.55840        5.17130
C         -2.94750        2.27230        4.21370
O         -2.89190        1.11450        3.77320
C         -2.09790        3.31560        3.55050
C         -2.48140        3.42760        2.10460
C         -2.27000        2.10600        1.42740
C         -2.65340        2.21810       -0.01840
C         -1.80390        3.26130       -0.68160
C         -0.63570        2.94020       -1.25570
C         -0.13570        1.52600       -1.25570
C          1.36430        1.52600       -1.25570
C          2.05640        0.53170       -0.68160
C          1.35600       -0.61700       -0.01840
C          2.20560       -1.84880       -0.12380
C          3.03530       -2.03060       -1.16100
C          3.88490       -3.26230       -1.26630
C          3.54280       -3.99930       -2.52720
C          2.09510       -4.39120       -2.50020
C          1.75300       -5.12830       -3.76100
C          0.30540       -5.52020       -3.73400
H         -1.04830        3.03190        3.62700
H         -2.25150        4.27590        4.04260
H         -1.86400        4.18570        1.62270
H         -3.53100        3.71130        2.02810
H         -1.22030        1.82230        1.50400
H         -2.88730        1.34790        1.90930
H         -2.49980        1.25770       -0.51050
H         -3.70310        2.50180       -0.09500
H         -2.16400        4.27980       -0.68160
H         -0.02390        3.69160       -1.73340
H         -0.49900        1.01220       -0.36570
H         -0.49900        1.01220       -2.14570
H          1.86870        2.35330       -1.73330
H          3.13670        0.53170       -0.68160
H          0.39940       -0.79230       -0.51050
H          1.18640       -0.38150        1.03220
H          2.12710       -2.58450        0.66330
H          3.11380       -1.29480       -1.94800
H          4.93680       -2.97760       -1.28600
H          3.69890       -3.90660       -0.40700
H          4.16010       -4.89440       -2.60370
H          3.72880       -3.35510       -3.38650
H          1.47780       -3.49620       -2.42360
H          1.90910       -5.03550       -1.64090
H          1.93900       -4.48400       -4.62030
H          2.37040       -6.02330       -3.83760
H          0.05680       -6.05570       -4.65020
H          0.11940       -6.16440       -2.87470
H         -0.31200       -4.62510       -3.65740
