49
gamma-Linolenic_acid
O         -7.27200        0.84130        1.09590
C         -6.16200        0.68820        1.62690
O         -5.85660       -0.38130        2.17510
C         -5.14490        1.79070        1.62690
C         -3.76640        1.19920        1.62690
C         -2.74930        2.30170        1.62690
C         -1.37080        1.71030        1.62690
C         -0.35370        2.81280        1.62690
C          0.95950        2.54290        1.62690
C          1.45950        1.12870        1.62690
C          2.95950        1.12870        1.62690
C          3.65160       -0.01940        1.62690
C          2.95120       -1.34590        1.62690
C          3.34300       -2.11820        0.40210
C          2.64460       -2.01030       -0.73710
C          3.03640       -2.78260       -1.96180
C          2.64460       -2.01030       -3.18650
C          3.03640       -2.78260       -4.41130
C          2.64460       -2.01020       -5.63600
C          3.34500       -0.68380       -5.63600
H         -5.27620        2.40610        2.51690
H         -5.27620        2.40610        0.73690
H         -3.63510        0.58380        0.73690
H         -3.63510        0.58380        2.51690
H         -2.88060        2.91720        0.73690
H         -2.88060        2.91720        2.51690
H         -1.23950        1.09480        2.51690
H         -1.23950        1.09480        0.73690
H         -0.71380        3.83130        1.62690
H          1.69200        3.33690        1.62690
H          1.09620        0.61490        2.51690
H          1.09620        0.61490        0.73690
H          3.46390        2.08400        1.62690
H          4.73190       -0.01940        1.62690
H          1.87280       -1.18730        1.62690
H          3.23590       -1.90710        2.51690
H          4.20640       -2.76420        0.46790
H          1.78120       -1.36420       -0.80280
H          4.11480       -2.94110       -1.96180
H          2.52740       -3.74640       -1.96180
H          3.15350       -1.04640       -3.18650
H          1.56610       -1.85170       -3.18650
H          2.52740       -3.74640       -4.41130
H          4.11480       -2.94110       -4.41130
H          2.92930       -2.57150       -6.52600
H          1.56610       -1.85170       -5.63600
H          3.06020       -0.12260       -6.52600
H          3.06020       -0.12260       -4.74610
H          4.42340       -0.84240       -5.63600
