49
gamma-Linolenic_acid
O          0.18430        4.74020       -5.76320
C         -0.59830        4.40300       -4.86240
O         -1.34250        5.23180       -4.31750
C         -0.67570        2.97930       -4.39650
C         -1.69980        2.86480       -3.30650
C         -1.77710        1.44110       -2.84060
C         -2.80120        1.32670       -1.75060
C         -2.40940        2.20810       -0.60190
C         -1.63750        1.74690        0.39240
C         -1.13750        0.33270        0.39240
C          0.36250        0.33270        0.39240
C          1.05460       -0.81540        0.39240
C          0.35420       -2.14190        0.39240
C          0.12080       -2.58400        1.80670
C          0.63960       -3.73090        2.26780
C          0.40610       -4.17310        3.68210
C          1.57890       -4.98080        4.15350
C          2.82120       -4.14250        4.09030
C          2.65720       -2.93860        4.97000
C          3.89950       -2.10030        4.90680
H          0.29700        2.66840       -4.01530
H         -0.96040        2.33880       -5.23130
H         -2.67250        3.17580       -3.68770
H         -1.41510        3.50530       -2.47180
H         -2.06190        0.80060       -3.67540
H         -0.80450        1.13020       -2.45940
H         -3.77390        1.63760       -2.13180
H         -2.85750        0.29210       -1.41200
H         -2.76950        3.22660       -0.60190
H         -1.35530        2.38170        1.21980
H         -1.50080       -0.18110        1.28240
H         -1.50080       -0.18110       -0.49750
H          0.86700        1.28800        0.39240
H          2.13490       -0.81540        0.39240
H          0.97160       -2.87870       -0.12140
H         -0.60240       -2.04760       -0.12140
H         -0.47900       -1.94820        2.44150
H          1.23940       -4.36670        1.63300
H          0.28700       -3.29820        4.32130
H         -0.49660       -4.78220        3.72790
H          1.69800       -5.85560        3.51420
H          1.40920       -5.30210        5.18110
H          2.99080       -3.82120        3.06260
H          3.67340       -4.72940        4.43290
H          1.80500       -2.35170        4.62740
H          2.48760       -3.25990        5.99760
H          3.78040       -1.22550        5.54600
H          4.75170       -2.68730        5.24940
H          4.06920       -1.77900        3.87910
