49
gamma-Linolenic_acid
O         -3.85460        5.53960       -3.30410
C         -3.83040        4.44240       -3.88140
O         -4.82510        3.70210       -3.89110
C         -2.59700        3.96770       -4.59080
C         -1.73820        3.19250       -3.63600
C         -2.50470        2.01060       -3.12060
C         -1.64600        1.23550       -2.16580
C         -1.25420        2.11690       -1.01710
C         -0.48220        1.65570       -0.02270
C          0.01780        0.24150       -0.02270
C          1.51780        0.24150       -0.02270
C          2.20990        0.24150        1.12540
C          1.50950        0.24150        2.45190
C          1.27600       -1.17270        2.89400
C          2.30030       -2.01660        3.08370
C          2.06680       -3.43080        3.52580
C          3.38330       -4.13800        3.65560
C          3.14990       -5.55220        4.09770
C          2.30030       -6.25930        3.08370
C          3.00070       -6.25930        1.75720
H         -2.03990        4.82650       -4.96530
H         -2.88170        3.32720       -5.42550
H         -1.45350        3.83300       -2.80120
H         -0.84190        2.84750       -4.15140
H         -3.40110        2.35560       -2.60510
H         -2.78950        1.37010       -3.95530
H         -2.20300        0.37660       -1.79130
H         -0.74970        0.89050       -2.68120
H         -1.61430        3.13540       -1.01710
H         -0.20000        2.29050        0.80460
H         -0.34550       -0.27240        0.86730
H         -0.34550       -0.27240       -0.91270
H          2.02220        0.24150       -0.97800
H          3.29020        0.24150        1.12540
H          0.55280        0.75530        2.35760
H          2.12690        0.75530        3.18870
H          0.25570       -1.48910        3.05460
H          3.32070       -1.70030        2.92310
H          1.55790       -3.43080        4.48970
H          1.44950       -3.94470        2.78900
H          4.00070       -3.62410        4.39240
H          3.89230       -4.13790        2.69170
H          2.64090       -5.55220        5.06160
H          4.10650       -6.06600        4.19200
H          2.13070       -7.28690        3.40500
H          1.34370       -5.74540        2.98940
H          2.38340       -6.77310        1.02040
H          3.17040       -5.23160        1.43590
H          3.95740       -6.77310        1.85150
