49
gamma-Linolenic_acid
O          0.11540        6.38080        0.39930
C         -0.19490        5.51740        1.23340
O         -0.83930        5.81260        2.25090
C          0.19690        4.08190        1.04450
C         -1.03660        3.23020        0.98800
C         -0.64480        1.79460        0.79900
C          0.12180        1.65010       -0.48220
C         -0.73700        2.08930       -1.63090
C         -1.04750        1.24540       -2.62530
C         -0.54750       -0.16880       -2.62530
C          0.95250       -0.16880       -2.62530
C          1.64460       -1.31690       -2.62530
C          0.94420       -2.64340       -2.62530
C          1.33600       -3.41570       -1.40050
C          0.49290       -4.29150       -0.83540
C          0.88470       -5.06380        0.38940
C         -0.06770       -4.74940        1.50470
C         -0.02020       -3.28020        1.80360
C         -0.97260       -2.96580        2.91890
C         -0.58080       -3.73810        4.14370
H          0.82090        3.76270        1.87920
H          0.75390        3.97680        0.11340
H         -1.66060        3.54940        0.15320
H         -1.59360        3.33520        1.91900
H         -0.02070        1.47540        1.63380
H         -1.54110        1.17570        0.75800
H          1.01810        2.26890       -0.44120
H          0.40650        0.60690       -0.61950
H         -1.09710        3.10780       -1.63090
H         -1.66600        1.56180       -3.45260
H         -0.91090       -0.68260       -1.73530
H         -0.91090       -0.68260       -3.51520
H          1.45690        0.78650       -2.62530
H          2.72490       -1.31690       -2.62530
H          1.22890       -3.20460       -3.51520
H         -0.13420       -2.48480       -2.62530
H          2.31970       -3.24320       -0.98860
H         -0.49080       -4.46400       -1.24730
H          0.85020       -6.13140        0.17220
H          1.89610       -4.78590        0.68600
H          0.21700       -5.31060        2.39470
H         -1.07910       -5.02730        1.20800
H         -0.30490       -2.71900        0.91360
H          0.99120       -3.00230        2.10020
H         -0.93800       -1.89820        3.13610
H         -1.98400       -3.24370        2.62230
H         -1.27290       -3.50960        4.95420
H         -0.61530       -4.80570        3.92650
H          0.43060       -3.46020        4.44030
