49
gamma-Linolenic_acid
O          0.77040        3.54620        5.33300
C         -0.10090        4.41780        5.19630
O         -0.80760        4.77180        6.15170
C         -0.33440        5.07810        3.86990
C         -1.35850        4.30050        3.09750
C         -0.86380        2.90130        2.87930
C         -1.88790        2.12360        2.10700
C         -2.12140        2.78400        0.78060
C         -1.89070        2.13140       -0.36760
C         -1.39070        0.71720       -0.36760
C          0.10930        0.71720       -0.36760
C          0.80150       -0.27710       -0.94160
C          0.10110       -1.42580       -1.60490
C          0.95060       -1.95040       -2.72420
C          1.85030       -2.92180       -2.51370
C          2.69980       -3.44640       -3.63300
C          2.44380       -4.91380       -3.80960
C          0.99620       -5.13320       -4.13550
C          0.74020       -6.60060       -4.31210
C         -0.70740       -6.82000       -4.63800
H          0.59960        5.10630        3.30860
H         -0.69390        6.09490        4.02840
H         -1.52810        4.78030        2.13370
H         -2.29250        4.27220        3.65870
H          0.07020        2.92950        2.31810
H         -0.69420        2.42140        3.84320
H         -1.52840        1.10690        1.94850
H         -2.82190        2.09540        2.66820
H         -2.48150        3.80250        0.78060
H         -2.05880        2.60700       -1.32290
H         -1.75400        0.20340        0.52240
H         -1.75400        0.20340       -1.25750
H          0.61380        1.54450        0.11010
H          1.88170       -0.27710       -0.94160
H         -0.85560       -1.08730       -2.00270
H         -0.06860       -2.21790       -0.87550
H          0.81390       -1.52010       -3.70560
H          1.98690       -3.35220       -1.53230
H          2.45120       -2.92070       -4.55500
H          3.75180       -3.28700       -3.39620
H          2.69240       -5.43950       -2.88770
H          3.06120       -5.29510       -4.62300
H          0.74760       -4.60750       -5.05740
H          0.37890       -4.75200       -3.32210
H          1.35760       -6.98180       -5.12550
H          0.98880       -7.12630       -3.39010
H         -0.89340       -7.88630       -4.76630
H         -1.32480       -6.43870       -3.82450
H         -0.95600       -6.29430       -5.55990
