49
gamma-Linolenic_acid
O         -6.30550       -0.88730       -1.05090
C         -5.43480       -1.29990       -0.27040
O         -4.25540       -1.42200       -0.63350
C         -5.77380       -1.66740        1.14390
C         -4.53460       -2.13030        1.85100
C         -3.51750       -1.02780        1.85100
C         -2.27830       -1.49080        2.55810
C         -1.26110       -0.38830        2.55810
C          0.05200       -0.65810        2.55810
C          0.55200       -2.07230        2.55810
C          2.05200       -2.07230        2.55810
C          2.74420       -1.49830        1.56370
C          2.04380       -0.83510        0.41500
C          2.89330        0.28430       -0.10960
C          2.84760        0.64120       -1.40100
C          3.69720        1.76060       -1.92560
C          3.44120        1.93720       -3.39310
C          4.29070        3.05660       -3.91770
C          3.94860        4.32530       -3.19420
C          4.79820        5.44470       -3.71880
H         -6.51290       -2.46850        1.14390
H         -6.18160       -0.79680        1.65770
H         -4.12680       -3.00080        1.33710
H         -4.78090       -2.39740        2.87860
H         -3.27110       -0.76080        0.82330
H         -3.92520       -0.15730        2.36480
H         -2.52460       -1.75780        3.58570
H         -1.87050       -2.36130        2.04420
H         -1.62120        0.63020        2.55810
H          0.78460        0.13590        2.55810
H          0.18870       -2.58620        3.44800
H          0.18870       -2.58620        1.66810
H          2.55650       -2.55000        3.38540
H          3.82450       -1.49830        1.56370
H          1.08710       -0.43720        0.75360
H          1.87410       -1.56440       -0.37710
H          3.54320        0.79350        0.58710
H          2.19770        0.13200       -2.09770
H          3.44860        2.68260       -1.39990
H          4.74910        1.52380       -1.76620
H          2.38920        2.17400       -3.55250
H          3.68980        1.01530       -3.91880
H          4.10470        3.18490       -4.98400
H          5.34270        2.81980       -3.75830
H          2.89670        4.56210       -3.35360
H          4.13470        4.19700       -2.12790
H          4.54960        6.36660       -3.19310
H          5.85020        5.20790       -3.55940
H          4.61220        5.57300       -4.78520
