49
gamma-Linolenic_acid
O         -7.80200        1.30760        0.03640
C         -6.97770        1.41810       -0.88330
O         -6.96730        0.62080       -1.83300
C         -5.96060        2.52060       -0.88330
C         -4.72140        2.05760       -0.17620
C         -3.70420        3.16010       -0.17620
C         -2.46500        2.69710        0.53090
C         -1.44790        3.79960        0.53090
C         -0.13470        3.52980        0.53090
C          0.36530        2.11560        0.53090
C          1.86530        2.11560        0.53090
C          2.55740        0.96750        0.53090
C          1.85700       -0.35900        0.53090
C          2.87410       -1.46150        0.53090
C          3.76530       -1.58090       -0.46340
C          4.78240       -2.68340       -0.46350
C          4.60180       -3.53040        0.76130
C          5.61890       -4.63290        0.76130
C          5.43820       -5.47980       -0.46350
C          6.45530       -6.58230       -0.46350
H         -6.36830        3.39110       -0.36950
H         -5.71420        2.78760       -1.91100
H         -4.31360        1.18710       -0.69010
H         -4.96770        1.79060        0.85140
H         -3.45790        3.42720       -1.20390
H         -4.11200        4.03060        0.33760
H         -2.71140        2.43010        1.55850
H         -2.05730        1.82660        0.01700
H         -1.80800        4.81810        0.53090
H          0.59780        4.32380        0.53090
H          0.00190        1.60180        1.42090
H          0.00190        1.60180       -0.35910
H          2.36970        3.07090        0.53090
H          3.63770        0.96750        0.53090
H          1.23300       -0.44030       -0.35910
H          1.23300       -0.44030        1.42090
H          2.86510       -2.15610        1.35820
H          3.77440       -0.88630       -1.29080
H          4.65120       -3.29890       -1.35340
H          5.78410       -2.25360       -0.46340
H          3.60010       -3.96020        0.76130
H          4.73310       -2.91490        1.65130
H          5.48760       -5.24830        1.65130
H          6.62060       -4.20310        0.76130
H          4.43650       -5.90960       -0.46350
H          5.56950       -4.86440       -1.35340
H          6.32400       -7.19780       -1.35340
H          7.45700       -6.15250       -0.46350
H          6.32400       -7.19780        0.42650
