49
gamma-Linolenic_acid
O         -3.48050       -0.09700        2.64800
C         -3.49630        1.07930        2.25600
O         -4.53220        1.58980        1.80460
C         -2.26280        1.93100        2.31250
C         -1.49630        1.78640        1.03130
C         -0.26280        2.63810        1.08770
C          0.50370        2.49350       -0.19350
C         -0.35510        2.93280       -1.34220
C         -0.66560        2.08890       -2.33650
C         -0.16560        0.67470       -2.33650
C          1.33440        0.67470       -2.33650
C          2.02650       -0.31970       -2.91060
C          1.32610       -1.46840       -3.57380
C          1.09270       -2.55840       -2.57010
C          1.49040       -2.42370       -1.29700
C          1.25690       -3.51370       -0.29330
C          1.80170       -3.09170        1.03900
C          1.10770       -1.84040        1.48930
C          1.65250       -1.41830        2.82160
C          3.12460       -1.15760        2.70000
H         -1.63880        1.61180        3.14720
H         -2.54760        2.97410        2.44980
H         -2.12030        2.10560        0.19650
H         -1.21160        0.74320        0.89400
H         -0.54760        3.68120        1.22510
H          0.36120        2.31890        1.92250
H          1.40000        3.11240       -0.15240
H          0.78840        1.45030       -0.33080
H         -0.71520        3.95130       -1.34220
H         -1.28410        2.40520       -3.16380
H         -0.52890        0.16080       -1.44650
H         -0.52890        0.16080       -3.22650
H          1.83880        1.50200       -1.85890
H          3.10680       -0.31970       -2.91060
H          1.94350       -1.84960       -4.38720
H          0.36950       -1.12980       -3.97170
H          0.59360       -3.45550       -2.90660
H          1.98940       -1.52670       -0.96050
H          0.18720       -3.70320       -0.20490
H          1.76120       -4.42300       -0.62050
H          2.87140       -2.90220        0.95070
H          1.63200       -3.88380        1.76840
H          0.03800       -2.02990        1.57770
H          1.27740       -1.04830        0.76000
H          1.14830       -0.50910        3.14880
H          1.48290       -2.21040        3.55100
H          3.52050       -0.85090        3.66820
H          3.62890       -2.06680        2.37280
H          3.29430       -0.36550        1.97070
