49
gamma-Linolenic_acid
O          1.52330        0.56220        4.83870
C          0.44550        0.00020        4.59350
O          0.04260       -0.94330        5.29000
C         -0.41320        0.43940        3.44480
C         -1.18540       -0.73470        2.92020
C         -0.23040       -1.79340        2.45430
C          0.63810       -1.23870        1.36430
C         -0.22070       -0.79940        0.21550
C         -0.53120       -1.64330       -0.77880
C         -0.03120       -3.05750       -0.77880
C          1.46880       -3.05750       -0.77880
C          2.16090       -2.48350       -1.77310
C          1.46050       -1.82020       -2.92180
C          1.22700       -0.37440       -2.59760
C          0.17390        0.28610       -3.09950
C         -0.05950        1.73190       -2.77540
C         -1.38790        1.88370       -2.09540
C         -1.62140        3.32950       -1.77120
C         -1.61310        4.13350       -3.03750
C         -1.84660        5.57940       -2.71330
H          0.21780        0.84250        2.65270
H         -1.10720        1.20880        3.78340
H         -1.80940       -0.41550        2.08540
H         -1.81650       -1.13770        3.71230
H          0.39370       -2.11260        3.28900
H         -0.79150       -2.64660        2.07310
H          1.19920       -0.38550        1.74550
H          1.33210       -2.00800        1.02570
H         -0.58080        0.21910        0.21550
H         -1.14970       -1.32700       -1.60610
H         -0.39450       -3.57140        0.11120
H         -0.39450       -3.57140       -1.66880
H          1.97320       -3.53520        0.04850
H          3.24120       -2.48350       -1.77310
H          0.50380       -2.31240       -3.09710
H          2.07790       -1.89680       -3.81690
H          1.93510        0.11720       -1.94660
H         -0.53410       -0.20550       -3.75060
H          0.73010        2.08800       -2.11370
H         -0.05350        2.31620       -3.69550
H         -1.39400        1.29950       -1.17520
H         -2.17760        1.52760       -2.75710
H         -0.83180        3.68560       -1.10960
H         -2.58670        3.43980       -1.27710
H         -0.64780        4.02330       -3.53160
H         -2.40270        3.77750       -3.69920
H         -1.84050        6.16360       -3.63350
H         -2.81190        5.68960       -2.21920
H         -1.05690        5.93550       -2.05160
