49
gamma-Linolenic_acid
O         -5.59200        0.43320       -0.65800
C         -4.72130        0.02060        0.12260
O         -3.54200       -0.10150       -0.24060
C         -5.06030       -0.34690        1.53680
C         -3.82110       -0.80980        2.24390
C         -2.80400        0.29270        2.24390
C         -1.56480       -0.17030        2.95100
C         -0.54770        0.93220        2.95100
C          0.76550        0.66240        2.95100
C          1.26550       -0.75180        2.95100
C          2.76550       -0.75180        2.95100
C          3.45760       -0.17780        1.95670
C          2.75720        0.48540        0.80790
C          2.52380       -0.51820       -0.28210
C          3.04260       -0.34420       -1.50590
C          2.80910       -1.34780       -2.59590
C          2.10870       -0.68460       -3.74470
C          2.95830        0.43480       -4.26930
C          2.25790        1.09800       -5.41800
C          0.94140        1.64550       -4.95210
H         -5.79940       -1.14800        1.53680
H         -5.46810        0.52370        2.05060
H         -3.41330       -1.68030        1.73000
H         -4.06750       -1.07690        3.27150
H         -2.55760        0.55970        1.21620
H         -3.21180        1.16320        2.75770
H         -1.81110       -0.43730        3.97860
H         -1.15700       -1.04080        2.43720
H         -0.90780        1.95070        2.95100
H          1.49800        1.45640        2.95100
H          0.90220       -1.26570        3.84100
H          0.90220       -1.26570        2.06100
H          3.26990       -1.22950        3.77830
H          4.53790       -0.17780        1.95670
H          3.37460        1.29890        0.42670
H          1.80060        0.88330        1.14650
H          1.92390       -1.38590       -0.04880
H          3.64240        0.52350       -1.73920
H          3.76580       -1.74570       -2.93450
H          2.19180       -2.16130       -2.21470
H          1.15210       -0.28680       -3.40610
H          1.93910       -1.41390       -4.53670
H          3.91490        0.03690       -4.60780
H          3.12790        1.16410       -3.47720
H          2.87520        1.91140       -5.79920
H          2.08820        0.36870       -6.21010
H          0.43240        2.12740       -5.78690
H          0.32400        0.83210       -4.57090
H          1.11100        2.37480       -4.16000
