49
gamma-Linolenic_acid
O          3.50070        1.62600       -3.81240
C          2.38230        2.04460       -3.47840
O          2.01270        2.00950       -2.29520
C          1.43250        2.60990       -4.49240
C          0.02130        2.35860       -4.05020
C         -0.20650        0.88170       -3.92050
C         -1.61770        0.63040       -3.47840
C         -1.85110        1.29080       -2.15190
C         -1.62040        0.63820       -1.00380
C         -1.12040       -0.77600       -1.00380
C          0.37960       -0.77600       -1.00380
C          1.07170       -0.20190       -0.00950
C          0.37130        0.46130        1.13930
C         -0.48750       -0.54340        1.84860
C         -1.22000       -0.19660        2.91660
C         -2.07870       -1.20130        3.62590
C         -1.22000       -2.31790        4.14130
C         -0.20280       -1.76670        5.09610
C          0.65590       -2.88330        5.61150
C         -0.20280       -3.88800        6.32080
H          1.60210        2.13010       -5.45630
H          1.59800        3.68310       -4.58660
H         -0.66890        2.76940       -4.78710
H         -0.14830        2.83850       -3.08640
H         -0.03690        0.40190       -4.88440
H          0.48370        0.47090       -3.18360
H         -2.30790        1.04120       -4.21520
H         -1.78320       -0.44280       -3.38410
H         -2.21120        2.30930       -2.15190
H         -1.78860        1.11380       -0.04850
H         -1.48380       -1.28980       -0.11380
H         -1.48380       -1.28980       -1.89380
H          0.88400       -1.25360       -1.83110
H          2.15200       -0.20190       -0.00950
H         -0.25280        1.27270        0.76480
H          1.11040        0.86190        1.83310
H         -0.49650       -1.55540        1.47090
H         -1.21090        0.81550        3.29430
H         -2.58770       -0.71940        4.46070
H         -2.81780       -1.60190        2.93210
H         -0.71100       -2.79990        3.30660
H         -1.84400       -3.04800        4.65680
H         -0.71180       -1.28480        5.93080
H          0.42120       -1.03660        4.58060
H          1.16490       -3.36530        4.77680
H          1.39500       -2.48280        6.30530
H          0.42120       -4.69940        6.69540
H         -0.71180       -3.40610        7.15560
H         -0.94190       -4.28860        5.62700
