49
gamma-Linolenic_acid
O         -1.71700        2.39570       -5.82180
C         -2.11810        1.35330       -5.28320
O         -1.42570        0.32460       -5.28460
C         -3.45670        1.29560       -4.60870
C         -3.27280        0.94500       -3.16190
C         -2.42320        1.98830       -2.49860
C         -2.23940        1.63770       -1.05180
C         -1.38980        2.68100       -0.38860
C         -0.22170        2.35990        0.18550
C          0.27830        0.94570        0.18550
C          1.77830        0.94570        0.18550
C          2.47050        0.94570        1.33360
C          1.77010        0.94570        2.66010
C          2.16190       -0.27910        3.43240
C          3.01730       -1.17560        2.92090
C          3.40910       -2.40040        3.69320
C          2.18630       -3.21690        3.98980
C          1.53330       -3.62510        2.70260
C          0.31050       -4.44160        2.99930
C         -0.65120       -3.62510        3.81090
H         -4.07400        0.53750       -5.09060
H         -3.94560        2.26660       -4.68800
H         -2.78390       -0.02590       -3.08260
H         -4.24550        0.90320       -2.67170
H         -1.45060        2.03020       -2.98880
H         -2.91220        2.95930       -2.57790
H         -3.21210        1.59580       -0.56170
H         -1.75050        0.66680       -0.97250
H         -1.74990        3.69950       -0.38860
H          0.39020        3.11120        0.66310
H         -0.08500        0.43180        1.07550
H         -0.08500        0.43180       -0.70450
H          2.28280        0.94570       -0.76980
H          3.55070        0.94570        1.33360
H          0.69160        0.94570        2.50150
H          2.05480        1.83560        3.22130
H          1.73230       -0.41520        4.41420
H          3.44690       -1.03950        1.93900
H          4.10790       -2.99370        3.10340
H          3.88370       -2.10370        4.62850
H          1.48750       -2.62360        4.57960
H          2.47100       -4.10690        4.55110
H          2.23210       -4.21840        2.11290
H          1.24860       -2.73510        2.14140
H         -0.16410       -4.73830        2.06400
H          0.59520       -5.33160        3.56050
H         -1.53980       -4.21840        4.02650
H         -0.17660       -3.32850        4.74620
H         -0.93590       -2.73510        3.24970
