49
gamma-Linolenic_acid
O         -3.27400       -0.66630        1.30760
C         -3.51590        0.42790        0.77660
O         -4.60650        0.64620        0.22830
C         -2.49880        1.53040        0.77660
C         -3.05990        2.72830        0.06950
C         -3.39900        2.36080       -1.34470
C         -2.15980        1.89790       -2.05190
C         -1.14260        3.00030       -2.05190
C          0.17050        2.73050       -2.05190
C          0.67050        1.31630       -2.05190
C          2.17050        1.31630       -2.05190
C          2.86270        1.31630       -0.90370
C          2.16230        1.31630        0.42270
C          1.92880       -0.09790        0.86490
C          2.83640       -0.75040        1.60500
C          2.60290       -2.16470        2.04710
C          3.14760       -3.10750        1.01550
C          2.91420       -4.52170        1.45760
C          1.44200       -4.75740        1.62260
C          0.74810       -4.52170        0.31390
H         -1.59830        1.19390        0.26270
H         -2.25240        1.79740        1.80420
H         -2.32080        3.52950        0.06950
H         -3.96040        3.06470        0.58330
H         -4.13810        1.55970       -1.34470
H         -3.80670        3.23130       -1.85860
H         -1.75200        1.02730       -1.53800
H         -2.40610        1.63080       -3.07950
H         -1.50270        4.01880       -2.05190
H          0.90310        3.52450       -2.05190
H          0.30720        0.80250       -1.16190
H          0.30720        0.80250       -2.94180
H          2.67500        1.31630       -3.00710
H          3.94290        1.31630       -0.90370
H          1.20560        1.83010        0.32850
H          2.77960        1.83010        1.15960
H          1.00550       -0.57350        0.56750
H          3.75960       -0.27490        1.90240
H          3.10710       -2.33590        2.99820
H          1.53310       -2.33590        2.16710
H          4.21740       -2.93620        0.89550
H          2.64340       -2.93620        0.06440
H          3.41840       -4.69300        2.40870
H          3.31000       -5.20680        0.70790
H          1.27240       -5.78500        1.94390
H          1.04620       -4.07230        2.37230
H         -0.32160       -4.69300        0.43380
H          0.91780       -3.49400       -0.00740
H          1.14400       -5.20680       -0.43580
