49
gamma-Linolenic_acid
O         -2.60730        5.00720        3.00470
C         -2.83210        4.86890        1.79320
O         -2.43050        5.70300        0.96820
C         -3.59860        3.68700        1.27780
C         -2.73990        2.91180        0.32300
C         -1.50640        2.43710        1.03230
C         -0.64770        1.66190        0.07750
C         -0.25580        2.54330       -1.07120
C          0.51610        2.08210       -2.06550
C          1.01610        0.66790       -2.06550
C          2.51610        0.66790       -2.06550
C          3.20820       -0.48030       -2.06550
C          2.50780       -1.80670       -2.06550
C          2.27430       -2.24880       -0.65130
C          2.79320       -3.39580       -0.19010
C          2.55970       -3.83790        1.22410
C          1.08760       -4.00290        1.45980
C          0.54280       -5.03460        0.51700
C         -0.92930       -5.19960        0.75270
C         -1.47410       -6.23130       -0.19010
H         -4.49500        4.03200        0.76230
H         -3.88340        3.04650        2.11250
H         -2.45520        3.55230       -0.51180
H         -3.29690        2.05300       -0.05150
H         -0.94940        3.29590        1.40680
H         -1.79110        1.79660        1.86710
H          0.24870        1.31690        0.59300
H         -1.20470        0.80300       -0.29700
H         -0.61590        3.56180       -1.07120
H          0.79830        2.71690       -2.89280
H          0.65280        0.15410       -1.17550
H          0.65280        0.15410       -2.95550
H          3.02050        1.62320       -2.06550
H          4.28850       -0.48030       -2.06550
H          3.12520       -2.54360       -2.57930
H          1.55120       -1.71240       -2.57930
H          1.67450       -1.61300       -0.01650
H          3.39300       -4.03160       -0.82490
H          3.06400       -4.78890        1.39540
H          2.95560       -3.08820        1.90920
H          0.58330       -3.05190        1.28850
H          0.91790       -4.32420        2.48750
H          1.04710       -5.98570        0.68830
H          0.71250       -4.71330       -0.51070
H         -1.09900       -5.52090        1.78030
H         -1.43360       -4.24860        0.58140
H         -2.54390       -6.35120       -0.01890
H         -1.30440       -5.91000       -1.21780
H         -0.96980       -7.18240       -0.01890
